Circuit: * C:\Users\Kyle\Documents\Storage\School\College\lambda-oxygen-sensor-interface\sim\heater.asc

Direct Newton iteration for .op point succeeded.

Date: Tue Dec 18 11:33:18 2018
Total elapsed time: 13.813 seconds.

tnom = 27
temp = 27
method = modified trap
totiter = 2006399
traniter = 2006384
tranpoints = 1002557
accept = 1001967
rejected = 590
matrix size = 19
fillins = 8
solver = Normal
Matrix Compiler1:      70 opcodes  0.3/[0.1]/0.2
Matrix Compiler2: 1.50 KB object code size  0.2/0.2/[0.2]

