Circuit: * C:\Users\Kyle\Documents\Storage\School\College\lambda-oxygen-sensor-interface\sim\power.asc

Instance "m:u3:2": Length shorter than recommended for a level 3 MOSFET.
Instance "m:u3:1": Length shorter than recommended for a level 3 MOSFET.
Instance "m:u2:2": Length shorter than recommended for a level 3 MOSFET.
Instance "m:u2:1": Length shorter than recommended for a level 3 MOSFET.
Direct Newton iteration failed to find .op point.  (Use ".option noopiter" to skip.)
Starting Gmin stepping
Gmin = 10
Gmin = 1.07374
vernier = 0.5
Gmin = 0.20016
vernier = 0.25
vernier = 0.125
vernier = 0.0625
vernier = 0.03125
vernier = 0.015625
Gmin = 0.20016
vernier = 0.0078125
vernier = 0.00390625
vernier = 0.00195313
vernier = 0.000976563
Gmin = 0.200013
vernier = 0.000488281
Gmin = 0
Gmin stepping succeeded in finding the operating point.

Heightened Def Con from 0.0321317 ++++++++++++++++++++++++to 0.0321317
Heightened Def Con from 0.0321317 ++++++++++++++++++++++++to 0.0321317
Heightened Def Con from 0.0321317 +++++++++++++++++++++++to 0.0321317
Heightened Def Con from 0.0321317 ++++++++++++++++++++++to 0.0321317
Heightened Def Con from 0.0321317 ++++++++++++++++++++++to 0.0321317
Heightened Def Con from 0.0321317 +++++++++++++++++++++to 0.0321317
Heightened Def Con from 0.0321317 to 0.0321317
Heightened Def Con from 0.0321317 ++++++++++++++++to 0.0321317
Heightened Def Con from 0.0321317 +++++++++++++++++++++to 0.0321317
Heightened Def Con from 0.0321317 +++++++++++++++++++++to 0.0321317
Heightened Def Con from 0.0321317 ++++++++++++++++++++to 0.0321317
Heightened Def Con from 0.0321317 ++++++++++++++++++++to 0.0321317
Heightened Def Con from 0.0321317 ++++++++++++++++++++to 0.0321317
Heightened Def Con from 0.0321317 to 0.0321317
Heightened Def Con from 0.0321317 ++++++++++++++++++++to 0.0321317
Heightened Def Con from 0.0321317 to 0.0321317
Heightened Def Con from 0.0321317 ++++++++++++++++++++to 0.0321317
Heightened Def Con from 0.0321317 +++++++++++++++++++to 0.0321317
Heightened Def Con from 0.0321317 to 0.0321317
Heightened Def Con from 0.0321317 +++++++++++++++++++to 0.0321317
Heightened Def Con from 0.0321317 ++++to 0.0321317
Heightened Def Con from 0.0321317 +++++++++++++++++++to 0.0321318
Heightened Def Con from 0.0321318 to 0.0321318
Heightened Def Con from 0.0321318 +++++++++++++++++++to 0.0321318
Heightened Def Con from 0.0321318 ++++++++++++++++++to 0.0321318
Heightened Def Con from 0.0321318 +++++++++++++++++to 0.0321318
Heightened Def Con from 0.0321318 ++++++++++++++++++to 0.0321318
Heightened Def Con from 0.0321318 ++++++++++++++++++to 0.0321318
Heightened Def Con from 0.0321318 +++++to 0.0321318
Heightened Def Con from 0.0321318 ++++++++++++++++++to 0.0321318
Heightened Def Con from 0.0321318 +++++++++++++++++to 0.0321318
Heightened Def Con from 0.0321318 +++++++++++++++++to 0.0321318
Heightened Def Con from 0.0321318 ++++++++++++++++to 0.0321318
Heightened Def Con from 0.0321318 ++++++++++++++to 0.0321318
Heightened Def Con from 0.0321318 ++++++++++++to 0.0321318
Heightened Def Con from 0.0321327 ++++++++++++++to 0.0321327
Heightened Def Con from 0.0321327 +++++++++++++++to 0.0321327
Heightened Def Con from 0.0321327 to 0.0321327
Heightened Def Con from 0.0321327 ++++++++++++++++to 0.0321327
Heightened Def Con from 0.0321327 to 0.0321327
Heightened Def Con from 0.0321327 ++++++++++++++++to 0.0321327
Heightened Def Con from 0.0321327 ++++++++++++++++to 0.0321327
Heightened Def Con from 0.0321327 ++++++++++++++++to 0.0321327
Heightened Def Con from 0.0321327 ++++++++++++++++to 0.0321327
Heightened Def Con from 0.0321327 ++++++++++++++++to 0.0321327
Heightened Def Con from 0.0321327 ++++++++++++++++to 0.0321327
Heightened Def Con from 0.0321327 ++++++++++++++++to 0.0321327
Heightened Def Con from 0.0321327 ++++++++++++++++to 0.0321327
Heightened Def Con from 0.0321327 ++++++++++++++++to 0.0321327
Heightened Def Con from 0.0321327 ++++++++++++++++to 0.0321327
Heightened Def Con from 0.0321327 ++++++++++++++++to 0.0321327
Heightened Def Con from 0.0321327 ++++++++++++++++to 0.0321327
Heightened Def Con from 0.0321327 ++++++++++++++++to 0.0321327
Heightened Def Con from 0.0321327 ++++++++++++++++to 0.0321327
Heightened Def Con from 0.0321327 +++++++++++++++++to 0.0321327
Heightened Def Con from 0.0321327 to 0.0321327
Heightened Def Con from 0.0321327 ++++++++++++++++++to 0.0321327
Heightened Def Con from 0.0321327 ++++++++++++++++++to 0.0321327
Heightened Def Con from 0.0321327 ++++++++++++++++++to 0.0321327
Heightened Def Con from 0.0321327 ++++++++++++++++++to 0.0321327
Heightened Def Con from 0.0321327 ++++++++++++++++++to 0.0321327
Heightened Def Con from 0.0321327 ++++++++++++++++++to 0.0321327
Heightened Def Con from 0.0321327 ++++++++++++++++++to 0.0321327
Heightened Def Con from 0.0321327 ++++++++++++++++++to 0.0321327
Heightened Def Con from 0.0321327 ++++++++++++++++++to 0.0321327
Heightened Def Con from 0.0321327 ++++++++++++++++++to 0.0321327
Heightened Def Con from 0.0321327 ++++++++++++++++++to 0.0321327
Heightened Def Con from 0.0321327 ++++++++++++++++++to 0.0321327
Heightened Def Con from 0.0321327 ++++++++++++++++++to 0.0321327
Heightened Def Con from 0.0321327 ++++++++++++++++++to 0.0321327
Heightened Def Con from 0.0321327 ++++++++++++++++++to 0.0321327
Heightened Def Con from 0.0321327 +++++++++++++++++++to 0.0321327
Heightened Def Con from 0.0321327 ++++++++++++++++to 0.0321327
Heightened Def Con from 0.0321327 ++++++++++++++++++++to 0.0321327
Heightened Def Con from 0.0321327 to 0.0321327
Heightened Def Con from 0.0321327 ++++++++++++++++++++to 0.0321327
Heightened Def Con from 0.0321327 ++++++++++++++++++++to 0.0321327
Heightened Def Con from 0.0321327 ++++++++++++++++++++to 0.0321327
Heightened Def Con from 0.0321327 ++++++++++++++++++++to 0.0321327
Heightened Def Con from 0.0321327 ++++++++++++++++++++to 0.0321327
Heightened Def Con from 0.0321327 ++++++++++++++++++++to 0.0321327
Heightened Def Con from 0.0321327 ++++++++++++++++++++to 0.0321327
Heightened Def Con from 0.0321327 ++++++++++++++++++++to 0.0321327
Heightened Def Con from 0.0321327 ++++++++++++++++++++to 0.0321327
Heightened Def Con from 0.0321327 ++++++++++++++++++++to 0.0321327
Heightened Def Con from 0.0321327 ++++++++++++++++++++to 0.0321327
Heightened Def Con from 0.0321327 ++++++++++++++++++++to 0.0321327
Heightened Def Con from 0.0321327 ++++++++++++++++++++to 0.0321327
Heightened Def Con from 0.0321327 ++++++++++++++++++++to 0.0321327
Heightened Def Con from 0.0321327 ++++++++++++++++++++to 0.0321327
Heightened Def Con from 0.0321327 ++++++++++++++++++++to 0.0321327
Heightened Def Con from 0.0321327 ++++++++++++++++++++to 0.0321327
Heightened Def Con from 0.0321327 +++++++++++++++++++++to 0.0321327
Heightened Def Con from 0.0321327 to 0.0321327
Heightened Def Con from 0.0321327 to 0.0321327
Heightened Def Con from 0.0321327 +++++++++++++++++++++to 0.0321327
Heightened Def Con from 0.0321327 +++++++++++++++++++++to 0.0321327
Heightened Def Con from 0.0321327 +++++++++++++++++++++to 0.0321327
Heightened Def Con from 0.0321327 +++++++++++++++++++++to 0.0321327
Heightened Def Con from 0.0321327 +++++++++++++++++++++to 0.0321327
Heightened Def Con from 0.0321327 +++++++++++++++++++++to 0.0321327
Heightened Def Con from 0.0321327 +++++++++++++++++++++to 0.0321327
Heightened Def Con from 0.0321327 +++++++++++++++++++++to 0.0321327
Heightened Def Con from 0.0321327 +++++++++++++++++++++to 0.0321327
Heightened Def Con from 0.0321327 +++++++++++++++++++++to 0.0321327
Heightened Def Con from 0.0321327 +++++++++++++++++++++to 0.0321327
Heightened Def Con from 0.0321327 +++++++++++++++++++++to 0.0321327
Heightened Def Con from 0.0321327 +++++++++++++++++++++to 0.0321327
Heightened Def Con from 0.0321327 +++++++++++++++++++++to 0.0321327
Heightened Def Con from 0.0321327 +++++++++++++++++++++to 0.0321327
Heightened Def Con from 0.0321327 +++++++++++++++++++++to 0.0321327
Heightened Def Con from 0.0321327 ++++++++++++++++++++++to 0.0321327
Heightened Def Con from 0.0321327 +++++++++++++++++++++to 0.0321327
Heightened Def Con from 0.0321327 ++++++++++++++++++++++to 0.0321327
Heightened Def Con from 0.0321327 +++++++++++++++++++to 0.0321327
Heightened Def Con from 0.0321327 ++++++++++++++++++++++to 0.0321327
Heightened Def Con from 0.0321327 ++++++++++++++++++++++to 0.0321327
Heightened Def Con from 0.0321327 ++++++++++++++++++++++to 0.0321327
Heightened Def Con from 0.0321327 ++++++++++++++++++++++to 0.0321327
Heightened Def Con from 0.0321327 ++++++++++++++++++++++to 0.0321327
Heightened Def Con from 0.0321327 ++++++++++++++++++++++to 0.0321327
Heightened Def Con from 0.0321327 ++++++++++++++++++++++to 0.0321327
Heightened Def Con from 0.0321327 ++++++++++++++++++++++to 0.0321327
Heightened Def Con from 0.0321327 ++++++++++++++++++++++to 0.0321327
Heightened Def Con from 0.0321327 ++++++++++++++++++++++to 0.0321327
Heightened Def Con from 0.0321327 ++++++++++++++++++++++to 0.0321327
Heightened Def Con from 0.0321327 ++++++++++++++++++++++to 0.0321327
Heightened Def Con from 0.0321327 ++++++++++++++++++++++to 0.0321327
Heightened Def Con from 0.0321327 ++++++++++++++++++++++to 0.0321327
Heightened Def Con from 0.0321327 ++++++++++++++++++++++to 0.0321327
Heightened Def Con from 0.0321327 ++++++++++++++++++++++to 0.0321327
Heightened Def Con from 0.0321327 +++++++++++++++++++++++to 0.0321327
Heightened Def Con from 0.0321327 +++++++++++++++++++++++to 0.0321327
Heightened Def Con from 0.0321327 +++++++++++++++++++++++to 0.0321327
Heightened Def Con from 0.0321327 +++++++++++++++++++++++to 0.0321327
Heightened Def Con from 0.0321327 +++++++++++++++++++++++to 0.0321327
Heightened Def Con from 0.0321327 +++++++++++++++++++++++to 0.0321327
Heightened Def Con from 0.0321327 +++++++++++++++++++++++to 0.0321327
Heightened Def Con from 0.0321327 +++++++++++++++++++++++to 0.0321327
Heightened Def Con from 0.0321327 +++++++++++++++++++++++to 0.0321327
Heightened Def Con from 0.0321327 +++++++++++++++++++++++to 0.0321327
Heightened Def Con from 0.0321327 +++++++++++++++++++++++to 0.0321327
Heightened Def Con from 0.0321327 +++++++++++++++++++++++to 0.0321327
Heightened Def Con from 0.0321327 +++++++++++++++++++++++to 0.0321327
Heightened Def Con from 0.0321327 +++++++++++++++++++++++to 0.0321327
Heightened Def Con from 0.0321327 +++++++++++++++++++++++to 0.0321327
Heightened Def Con from 0.0321327 +++++++++++++++++++++++to 0.0321327
Heightened Def Con from 0.0321327 +++++++++++++++++++++++to 0.0321327
Heightened Def Con from 0.0321327 +++++++++++++++++++++++to 0.0321327
Heightened Def Con from 0.0321327 +++++++++++++++++++++++to 0.0321327
Heightened Def Con from 0.0321327 +++++++++++++++++++++++to 0.0321327
Heightened Def Con from 0.0321327 +++++++++++++++++++++++to 0.0321327
Heightened Def Con from 0.0321327 +++++++++++++++++++++++to 0.0321327
Heightened Def Con from 0.0321327 +++++++++++++++++++++++to 0.0321327
Heightened Def Con from 0.0321327 +++++++++++++++++++++++to 0.0321327
Heightened Def Con from 0.0321327 +++++++++++++++++++++++to 0.0321327
Heightened Def Con from 0.0321327 +++++++++++++++++++++++to 0.0321327
Heightened Def Con from 0.0321327 +++++++++++++++++++++++to 0.0321327
Heightened Def Con from 0.0321327 ++++++++++++++++++++++++to 0.0321327
Heightened Def Con from 0.0641512 ++++++++++++++++++++++++to 0.0641512
Heightened Def Con from 0.0641512 +++++++++++++++++++++++to 0.0641512
Heightened Def Con from 0.0641512 +++++++++++++++++++++++to 0.0641512
Heightened Def Con from 0.0641512 ++++++++++++++++++++++to 0.0641512
Heightened Def Con from 0.0641512 +++++++++++++++++++++to 0.0641512
Heightened Def Con from 0.0641512 to 0.0641512
Heightened Def Con from 0.0641512 +++++++++++++++++++++to 0.0641512
Heightened Def Con from 0.0641512 +++++++++++++++++++to 0.0641512
Heightened Def Con from 0.0641512 ++++++++++++++++++to 0.0641512
Heightened Def Con from 0.0641512 ++++++++++++++++++to 0.0641512
Heightened Def Con from 0.0641512 ++++++++++++++++++to 0.0641512
Heightened Def Con from 0.0641512 ++++++++++++++++++to 0.0641512
Heightened Def Con from 0.0641512 ++++++++++++++++++to 0.0641512
Heightened Def Con from 0.0641512 ++++++++++++++++++to 0.0641512
Heightened Def Con from 0.0641512 ++++++++++++++++++to 0.0641512
Heightened Def Con from 0.0641512 ++++++++++++++++++to 0.0641512
Heightened Def Con from 0.0641512 ++++++++++++++++++to 0.0641512
Heightened Def Con from 0.0641512 ++++++++++++++++++to 0.0641512
Heightened Def Con from 0.0641512 ++++++++++++++++++to 0.0641512
Heightened Def Con from 0.0641512 ++++++++++++++++++to 0.0641512
Heightened Def Con from 0.0641512 +++++++++++++++++++to 0.0641512
Heightened Def Con from 0.0641512 +++++++++++++++++++to 0.0641512
Heightened Def Con from 0.0641512 ++++++++++++++++++to 0.0641512
Heightened Def Con from 0.0641512 ++++++++++++++++++to 0.0641512
Heightened Def Con from 0.0641512 +++++++++++++++++to 0.0641512
Heightened Def Con from 0.0641512 ++++++++++++++++to 0.0641512
Heightened Def Con from 0.0641512 to 0.0641512
Heightened Def Con from 0.0641522 +++++++++++++++to 0.0641522
Heightened Def Con from 0.0641522 to 0.0641522
Heightened Def Con from 0.0641522 +++to 0.0641522
Heightened Def Con from 0.0641522 ++++++++++++++++to 0.0641522
Heightened Def Con from 0.0641522 to 0.0641522
Heightened Def Con from 0.0641522 +++++++++++++++++to 0.0641522
Heightened Def Con from 0.0641522 to 0.0641522
Heightened Def Con from 0.0641522 ++++++++++++++++++to 0.0641522
Heightened Def Con from 0.0641522 to 0.0641522
Heightened Def Con from 0.0641522 +++++++++++++++++++to 0.0641522
Heightened Def Con from 0.0641522 to 0.0641522
Heightened Def Con from 0.0641522 ++++++++++++++++++++to 0.0641522
Heightened Def Con from 0.0641522 ++++++++++++++++++++to 0.0641522
Heightened Def Con from 0.0641522 ++++++++++++++++++++to 0.0641522
Heightened Def Con from 0.0641522 ++++++++++++++++++++to 0.0641522
Heightened Def Con from 0.0641522 ++++++++++++++++++++to 0.0641522
Heightened Def Con from 0.0641522 ++++++++++++++++++++to 0.0641522
Heightened Def Con from 0.0641522 ++++++++++++++++++++to 0.0641522
Heightened Def Con from 0.0641522 ++++++++++++++++++++to 0.0641522
Heightened Def Con from 0.0641522 ++++++++++++++++++++to 0.0641522
Heightened Def Con from 0.0641522 ++++++++++++++++++++to 0.0641522
Heightened Def Con from 0.0641522 ++++++++++++++++++++to 0.0641522
Heightened Def Con from 0.0641522 ++++++++++++++++++++to 0.0641522
Heightened Def Con from 0.0641522 +++++++++++++++++++++to 0.0641522
Heightened Def Con from 0.0641522 +++++++++++++++++++++to 0.0641522
Heightened Def Con from 0.0641522 +++++++++++++++++++++to 0.0641522
Heightened Def Con from 0.0641522 +++++++++++++++++++++to 0.0641522
Heightened Def Con from 0.0641522 +++++++++++++++++++++to 0.0641522
Heightened Def Con from 0.0641522 +++++++++++++++++++++to 0.0641522
Heightened Def Con from 0.0641522 +++++++++++++++++++++to 0.0641522
Heightened Def Con from 0.0641522 +++++++++++++++++++++to 0.0641522
Heightened Def Con from 0.0641522 +++++++++++++++++++++to 0.0641522
Heightened Def Con from 0.0641522 +++++++++++++++++++++to 0.0641522
Heightened Def Con from 0.0641522 +++++++++++++++++++++to 0.0641522
Heightened Def Con from 0.0641522 +++++++++++++++++++++to 0.0641522
Heightened Def Con from 0.0641522 +++++++++++++++++++++to 0.0641522
Heightened Def Con from 0.0641522 +++++++++++++++++++++to 0.0641522
Heightened Def Con from 0.0641522 +++++++++++++++++++++to 0.0641522
Heightened Def Con from 0.0641522 +++++++++++++++++++++to 0.0641522
Heightened Def Con from 0.0641522 +++++++++++++++++++++to 0.0641522
Heightened Def Con from 0.0641522 +++++++++++++++++++++to 0.0641522
Heightened Def Con from 0.0641522 ++++++++++++++++++++++to 0.0641522
Heightened Def Con from 0.0641522 ++++++++++++++++++++to 0.0641522
Heightened Def Con from 0.0641522 ++++++++++++++++++++++to 0.0641522
Heightened Def Con from 0.0641522 ++++++++++++++++++++++to 0.0641522
Heightened Def Con from 0.0641522 ++++++++++++++++++++++to 0.0641522
Heightened Def Con from 0.0641522 ++++++++++++++++++++++to 0.0641522
Heightened Def Con from 0.0641522 ++++++++++++++++++++++to 0.0641522
Heightened Def Con from 0.0641522 ++++++++++++++++++++++to 0.0641522
Heightened Def Con from 0.0641522 ++++++++++++++++++++++to 0.0641522
Heightened Def Con from 0.0641522 ++++++++++++++++++++++to 0.0641522
Heightened Def Con from 0.0641522 ++++++++++++++++++++++to 0.0641522
Heightened Def Con from 0.0641522 ++++++++++++++++++++++to 0.0641522
Heightened Def Con from 0.0641522 ++++++++++++++++++++++to 0.0641522
Heightened Def Con from 0.0641522 ++++++++++++++++++++++to 0.0641522
Heightened Def Con from 0.0641522 ++++++++++++++++++++++to 0.0641522
Heightened Def Con from 0.0641522 ++++++++++++++++++++++to 0.0641522
Heightened Def Con from 0.0641522 ++++++++++++++++++++++to 0.0641522
Heightened Def Con from 0.0641522 ++++++++++++++++++++++to 0.0641522
Heightened Def Con from 0.0641522 ++++++++++++++++++++++to 0.0641522
Heightened Def Con from 0.0641522 ++++++++++++++++++++++to 0.0641522
Heightened Def Con from 0.0641522 ++++++++++++++++++++++to 0.0641522
Heightened Def Con from 0.0641522 ++++++++++++++++++++++to 0.0641522
Heightened Def Con from 0.0641522 ++++++++++++++++++++++to 0.0641522
Heightened Def Con from 0.0641522 +++++++++++++++++++++++to 0.0641522
Heightened Def Con from 0.0641522 +++++++++++++++++++++++to 0.0641522
Heightened Def Con from 0.0641522 to 0.0641522
Heightened Def Con from 0.0961248 ++++++++++++++++++++++++to 0.0961248
Heightened Def Con from 0.0961248 to 0.0961248
Heightened Def Con from 0.0961248 +++++++++++++++++++++++to 0.0961248
Heightened Def Con from 0.0961248 +++++++++++++++++++++++to 0.0961248
Heightened Def Con from 0.0961248 +++++++++++++++++++++to 0.0961248
Heightened Def Con from 0.0961248 to 0.0961248
Heightened Def Con from 0.0961248 +++++++++++++++++++++to 0.0961249
Heightened Def Con from 0.0961249 ++++++++++++++++to 0.0961249
Heightened Def Con from 0.0961249 +++++++++++++++++++++to 0.0961249
Heightened Def Con from 0.0961249 to 0.0961249
Heightened Def Con from 0.0961249 to 0.0961249
Heightened Def Con from 0.0961249 +++++++++++++++++++++to 0.0961249
Heightened Def Con from 0.0961249 ++++++++++++++++++++to 0.0961249
Heightened Def Con from 0.0961249 +++++++++++++++++++to 0.0961249
Heightened Def Con from 0.0961249 to 0.0961249
Heightened Def Con from 0.0961249 +++++++++++++++++++to 0.0961249
Heightened Def Con from 0.0961249 to 0.0961249
Heightened Def Con from 0.0961249 ++++++++++++++++++to 0.0961249
Heightened Def Con from 0.0961249 +++++++++++++++++to 0.0961249
Heightened Def Con from 0.0961249 ++++++++++++++++++to 0.0961249
Heightened Def Con from 0.0961249 +++++++++++++++++to 0.0961249
Heightened Def Con from 0.0961249 ++++++++++++++++to 0.0961249
Heightened Def Con from 0.0961249 to 0.0961249
Heightened Def Con from 0.0961258 +++++++++++++++to 0.0961258
Heightened Def Con from 0.0961258 to 0.0961258
Heightened Def Con from 0.0961258 ++++++++++++++++to 0.0961258
Heightened Def Con from 0.0961258 to 0.0961258
Heightened Def Con from 0.0961258 +++++++++++++++++to 0.0961258
Heightened Def Con from 0.0961258 +++++++++++++++++to 0.0961258
Heightened Def Con from 0.0961258 +++++++++++++++++to 0.0961258
Heightened Def Con from 0.0961258 +++++++++++++++++to 0.0961258
Heightened Def Con from 0.0961258 +++++++++++++++++to 0.0961258
Heightened Def Con from 0.0961258 +++++++++++++++++to 0.0961258
Heightened Def Con from 0.0961258 +++++++++++++++++to 0.0961258
Heightened Def Con from 0.0961258 +++++++++++++++++to 0.0961258
Heightened Def Con from 0.0961258 +++++++++++++++++to 0.0961258
Heightened Def Con from 0.0961258 +++++++++++++++++to 0.0961258
Heightened Def Con from 0.0961258 +++++++++++++++++to 0.0961258
Heightened Def Con from 0.0961258 +++++++++++++++++to 0.0961258
Heightened Def Con from 0.0961258 +++++++++++++++++to 0.0961258
Heightened Def Con from 0.0961258 ++++++++++++++++++to 0.0961258
Heightened Def Con from 0.0961258 ++++++++++++++++++to 0.0961258
Heightened Def Con from 0.0961258 ++++++++++++++++++to 0.0961258
Heightened Def Con from 0.0961258 ++++++++++++++++++to 0.0961258
Heightened Def Con from 0.0961258 ++++++++++++++++++to 0.0961258
Heightened Def Con from 0.0961258 ++++++++++++++++++to 0.0961258
Heightened Def Con from 0.0961258 ++++++++++++++++++to 0.0961258
Heightened Def Con from 0.0961258 ++++++++++++++++++to 0.0961258
Heightened Def Con from 0.0961258 ++++++++++++++++++to 0.0961258
Heightened Def Con from 0.0961258 ++++++++++++++++++to 0.0961258
Heightened Def Con from 0.0961258 ++++++++++++++++++to 0.0961258
Heightened Def Con from 0.0961258 ++++++++++++++++++to 0.0961258
Heightened Def Con from 0.0961258 ++++++++++++++++++to 0.0961258
Heightened Def Con from 0.0961258 ++++++++++++++++++to 0.0961258
Heightened Def Con from 0.0961258 ++++++++++++++++++to 0.0961258
Heightened Def Con from 0.0961258 ++++++++++++++++++to 0.0961258
Heightened Def Con from 0.0961258 ++++++++++++++++++to 0.0961258
Heightened Def Con from 0.0961258 ++++++++++++++++++to 0.0961258
Heightened Def Con from 0.0961258 ++++++++++++++++++to 0.0961258
Heightened Def Con from 0.0961258 +++++++++++++++++++to 0.0961258
Heightened Def Con from 0.0961258 +++++++++++++++++++to 0.0961258
Heightened Def Con from 0.0961258 +++++++++++++++++++to 0.0961258
Heightened Def Con from 0.0961258 +++++++++++++++++++to 0.0961258
Heightened Def Con from 0.0961258 +++++++++++++++++++to 0.0961258
Heightened Def Con from 0.0961258 +++++++++++++++++++to 0.0961258
Heightened Def Con from 0.0961258 +++++++++++++++++++to 0.0961258
Heightened Def Con from 0.0961258 +++++++++++++++++++to 0.0961258
Heightened Def Con from 0.0961258 +++++++++++++++++++to 0.0961258
Heightened Def Con from 0.0961258 +++++++++++++++++++to 0.0961258
Heightened Def Con from 0.0961258 +++++++++++++++++++to 0.0961258
Heightened Def Con from 0.0961258 +++++++++++++++++++to 0.0961258
Heightened Def Con from 0.0961258 +++++++++++++++++++to 0.0961258
Heightened Def Con from 0.0961258 +++++++++++++++++++to 0.0961258
Heightened Def Con from 0.0961258 +++++++++++++++++++to 0.0961258
Heightened Def Con from 0.0961258 +++++++++++++++++++to 0.0961258
Heightened Def Con from 0.0961258 +++++++++++++++++++to 0.0961258
Heightened Def Con from 0.0961258 +++++++++++++++++++to 0.0961258
Heightened Def Con from 0.0961258 +++++++++++++++++++to 0.0961258
Heightened Def Con from 0.0961258 ++++++++++++++++++++to 0.0961258
Heightened Def Con from 0.0961258 ++++++++++++++++++++to 0.0961258
Heightened Def Con from 0.0961258 ++++++++++++++++++++to 0.0961258
Heightened Def Con from 0.0961258 ++++++++++++++++++++to 0.0961258
Heightened Def Con from 0.0961258 ++++++++++++++++++++to 0.0961258
Heightened Def Con from 0.0961258 ++++++++++++++++++++to 0.0961258
Heightened Def Con from 0.0961258 ++++++++++++++++++++to 0.0961258
Heightened Def Con from 0.0961258 +++++++++++++++++++++to 0.0961258
Heightened Def Con from 0.0961258 +++++++++++++++++++++to 0.0961258
Heightened Def Con from 0.0961258 +++++++++++++++++++++to 0.0961258
Heightened Def Con from 0.0961258 +++++++++++++++++++++to 0.0961258
Heightened Def Con from 0.0961258 +++++++++++++++++++++to 0.0961258
Heightened Def Con from 0.0961258 +++++++++++++++++++++to 0.0961258
Heightened Def Con from 0.0961258 +++++++++++++++++++++to 0.0961258
Heightened Def Con from 0.0961258 +++++++++++++++++++++to 0.0961258
Heightened Def Con from 0.0961258 +++++++++++++++++++++to 0.0961258
Heightened Def Con from 0.0961258 +++++++++++++++++++++to 0.0961258
Heightened Def Con from 0.0961258 +++++++++++++++++++++to 0.0961258
Heightened Def Con from 0.0961258 +++++++++++++++++++++to 0.0961258
Heightened Def Con from 0.0961258 +++++++++++++++++++++to 0.0961258
Heightened Def Con from 0.0961258 ++++++++++++++++++++++to 0.0961258
Heightened Def Con from 0.0961258 ++++++++++++++++++++++to 0.0961258
Heightened Def Con from 0.0961258 ++++++++++++++++++++++to 0.0961258
Heightened Def Con from 0.0961258 ++++++++++++++++++++++to 0.0961258
Heightened Def Con from 0.0961258 ++++++++++++++++++++++to 0.0961258
Heightened Def Con from 0.0961258 ++++++++++++++++++++++to 0.0961258
Heightened Def Con from 0.0961258 ++++++++++++++++++++++to 0.0961258
Heightened Def Con from 0.0961258 ++++++++++++++++++++++to 0.0961258
Heightened Def Con from 0.0961258 ++++++++++++++++++++++to 0.0961258
Heightened Def Con from 0.0961258 ++++++++++++++++++++++to 0.0961258
Heightened Def Con from 0.0961258 ++++++++++++++++++++++to 0.0961258
Heightened Def Con from 0.0961258 ++++++++++++++++++++++to 0.0961258
Heightened Def Con from 0.0961258 ++++++++++++++++++++++to 0.0961258
Heightened Def Con from 0.0961258 +++++++++++++++++++++++to 0.0961258
Heightened Def Con from 0.0961258 to 0.0961259
Heightened Def Con from 0.533172 ++++++++++++++++++++to 0.533172
Heightened Def Con from 0.533172 to 0.533172
Heightened Def Con from 0.533172 ++++++++++++++++++++to 0.533172
Heightened Def Con from 0.533172 to 0.533172
Heightened Def Con from 0.533172 +to 0.533172
Heightened Def Con from 0.533172 to 0.533172
Heightened Def Con from 0.533172 ++++++++++++++++++++to 0.533172
Heightened Def Con from 0.533172 to 0.533172
Heightened Def Con from 0.533172 to 0.533172
Heightened Def Con from 0.533172 +to 0.533172
Heightened Def Con from 0.533172 to 0.533172
Heightened Def Con from 0.533172 to 0.533172
Heightened Def Con from 0.533172 ++++++++++++++++++++to 0.533172
Heightened Def Con from 0.533172 to 0.533172
Heightened Def Con from 0.533172 to 0.533172
Heightened Def Con from 0.533172 to 0.533172
Heightened Def Con from 0.533172 to 0.533172
Heightened Def Con from 0.533172 ++to 0.533172
Heightened Def Con from 0.533172 to 0.533172
Heightened Def Con from 0.533172 +to 0.533172
Heightened Def Con from 0.533172 ++to 0.533172
Heightened Def Con from 0.533172 +to 0.533172
Heightened Def Con from 0.533172 to 0.533172
Heightened Def Con from 0.533172 to 0.533172
Heightened Def Con from 0.533172 ++to 0.533172
Heightened Def Con from 0.533172 ++++++++++++++++++++to 0.533172
Heightened Def Con from 0.533172 to 0.533172
Heightened Def Con from 0.533172 to 0.533172
Heightened Def Con from 0.533172 to 0.533172
Heightened Def Con from 0.533172 to 0.533172
Heightened Def Con from 0.533172 ++++++++++++++++++++to 0.533172
Heightened Def Con from 0.533172 to 0.533172
Heightened Def Con from 0.533172 to 0.533172
Heightened Def Con from 0.533172 +to 0.533172
Heightened Def Con from 0.533172 ++++++++++++++++++++to 0.533172
Heightened Def Con from 0.533172 to 0.533172
Heightened Def Con from 0.533172 to 0.533172
Heightened Def Con from 0.533172 to 0.533172
Heightened Def Con from 0.533172 to 0.533172
Heightened Def Con from 0.533172 to 0.533172
Heightened Def Con from 0.533172 ++++++++++++++++++++to 0.533172
Heightened Def Con from 0.533172 to 0.533172
Heightened Def Con from 0.533172 to 0.533172
Heightened Def Con from 0.533172 to 0.533172
Heightened Def Con from 0.533172 to 0.533172
Heightened Def Con from 0.533172 +to 0.533172
Heightened Def Con from 0.533172 ++++++++++++++++++++to 0.533172
Heightened Def Con from 0.533172 to 0.533172
Heightened Def Con from 0.533172 to 0.533172
Heightened Def Con from 0.533172 ++++++++++++++++++++to 0.533172
Heightened Def Con from 0.533172 to 0.533172
Heightened Def Con from 0.533172 to 0.533172
Heightened Def Con from 0.533172 to 0.533172
Heightened Def Con from 0.533172 to 0.533172
Heightened Def Con from 0.533172 ++++++++++++++++++++to 0.533172
Heightened Def Con from 0.533172 to 0.533172
Heightened Def Con from 0.533172 to 0.533172
Heightened Def Con from 0.533172 to 0.533172
Heightened Def Con from 0.533172 ++to 0.533172
Heightened Def Con from 0.533172 ++++++++++++++++++++to 0.533172
Heightened Def Con from 0.533172 to 0.533172
Heightened Def Con from 0.533172 to 0.533172
Heightened Def Con from 0.533172 +to 0.533172
Heightened Def Con from 0.533172 to 0.533172
Heightened Def Con from 0.533172 +to 0.533172
Heightened Def Con from 0.533172 ++++++++++++++++++++to 0.533172
Heightened Def Con from 0.533172 to 0.533172
Heightened Def Con from 0.533172 to 0.533172
Heightened Def Con from 0.533172 ++++++++++++++++++++to 0.533172
Heightened Def Con from 0.533172 to 0.533172
Heightened Def Con from 0.533172 to 0.533172
Heightened Def Con from 0.533172 +to 0.533172
Heightened Def Con from 0.533172 to 0.533172
Heightened Def Con from 0.533172 to 0.533172
Heightened Def Con from 0.533172 ++to 0.533172
Heightened Def Con from 0.533172 ++++++++++++++++++++to 0.533172
Heightened Def Con from 0.533172 to 0.533172
Heightened Def Con from 0.533172 to 0.533172
Heightened Def Con from 0.533172 ++to 0.533172
Heightened Def Con from 0.533172 +to 0.533172
Heightened Def Con from 0.533172 ++++++++++++++++++++to 0.533172
Heightened Def Con from 0.533172 to 0.533172
Heightened Def Con from 0.533172 to 0.533172
Heightened Def Con from 0.533172 to 0.533172
Heightened Def Con from 0.533172 to 0.533172
Heightened Def Con from 0.533172 +to 0.533172
Heightened Def Con from 0.533172 to 0.533172
Heightened Def Con from 0.533172 ++++++++++++++++++++to 0.533172
Heightened Def Con from 0.533172 to 0.533172
Heightened Def Con from 0.533172 to 0.533172
Heightened Def Con from 0.533172 to 0.533172
Heightened Def Con from 0.533172 to 0.533172
Heightened Def Con from 0.533172 to 0.533172
Heightened Def Con from 0.533172 ++to 0.533172
Heightened Def Con from 0.533172 ++to 0.533172
Heightened Def Con from 0.533172 ++++++++++++++++++++to 0.533172
Heightened Def Con from 0.533172 to 0.533172
Heightened Def Con from 0.533172 to 0.533172
Heightened Def Con from 0.533172 to 0.533172
Heightened Def Con from 0.533172 to 0.533172
Heightened Def Con from 0.533172 to 0.533172
Heightened Def Con from 0.533172 +++to 0.533172
Heightened Def Con from 0.533172 +to 0.533172
Heightened Def Con from 0.533172 ++to 0.533172
Heightened Def Con from 0.533172 ++++++++++++++++++++to 0.533172
Heightened Def Con from 0.533172 to 0.533172
Heightened Def Con from 0.533172 to 0.533172
Heightened Def Con from 0.533172 to 0.533172
Heightened Def Con from 0.533172 to 0.533172
Heightened Def Con from 0.533172 ++++to 0.533172
Heightened Def Con from 0.533172 to 0.533172
Heightened Def Con from 0.533172 +to 0.533172
Heightened Def Con from 0.533172 ++++++++++++++++++++to 0.533172
Heightened Def Con from 0.533172 to 0.533172
Heightened Def Con from 0.533172 to 0.533172
Heightened Def Con from 0.533172 to 0.533172
Heightened Def Con from 0.533172 +to 0.533172
Heightened Def Con from 0.533172 ++++++++++++++++++++to 0.533172
Heightened Def Con from 0.533172 to 0.533172
Heightened Def Con from 0.533172 to 0.533172
Heightened Def Con from 0.533172 ++to 0.533172
Heightened Def Con from 0.533172 ++++++++++++++++++++to 0.533172
Heightened Def Con from 0.533172 to 0.533172
Heightened Def Con from 0.533172 to 0.533172
Heightened Def Con from 0.533172 ++++++++++++++++++++to 0.533172
Heightened Def Con from 0.533172 to 0.533172
Heightened Def Con from 0.533172 to 0.533172
Heightened Def Con from 0.533172 ++++++++++++++++++++to 0.533172
Heightened Def Con from 0.533172 to 0.533172
Heightened Def Con from 0.533172 to 0.533172
Heightened Def Con from 0.533172 +to 0.533172
Heightened Def Con from 0.533172 ++++++++++++++++++++to 0.533172
Heightened Def Con from 0.533172 to 0.533172
Heightened Def Con from 0.533172 to 0.533172
Heightened Def Con from 0.533172 ++++++++++++++++++++to 0.533172
Heightened Def Con from 0.533172 to 0.533172
Heightened Def Con from 0.533172 to 0.533172
Heightened Def Con from 0.533172 +to 0.533172
Heightened Def Con from 0.533172 ++++++++++++++++++++to 0.533172
Heightened Def Con from 0.533172 to 0.533172
Heightened Def Con from 0.533172 to 0.533172
Heightened Def Con from 0.533172 to 0.533172
Heightened Def Con from 0.533172 +to 0.533172
Heightened Def Con from 0.533172 ++++++++++++++++++++to 0.533172
Heightened Def Con from 0.533172 to 0.533172
Heightened Def Con from 0.533172 to 0.533172
Heightened Def Con from 0.533172 to 0.533172
Heightened Def Con from 0.533172 ++++++++++++++++++++to 0.533172
Heightened Def Con from 0.533172 to 0.533172
Heightened Def Con from 0.533172 to 0.533172
Heightened Def Con from 0.533172 to 0.533172
Heightened Def Con from 0.533172 ++to 0.533172
Heightened Def Con from 0.533172 ++++++++++++++++++++to 0.533172
Heightened Def Con from 0.533172 to 0.533172
Heightened Def Con from 0.533172 to 0.533172
Heightened Def Con from 0.533172 to 0.533172
Heightened Def Con from 0.533172 ++++++++++++++++++++to 0.533172
Heightened Def Con from 0.533172 to 0.533172
Heightened Def Con from 0.533172 to 0.533172
Heightened Def Con from 0.533172 +to 0.533172
Heightened Def Con from 0.533172 ++++++++++++++++++++to 0.533172
Heightened Def Con from 0.533172 to 0.533172
Heightened Def Con from 0.533172 to 0.533172
Heightened Def Con from 0.533172 ++++++++++++++++++++to 0.533172
Heightened Def Con from 0.533172 to 0.533172
Heightened Def Con from 0.533172 to 0.533172
Heightened Def Con from 0.533172 to 0.533172
Heightened Def Con from 0.533172 ++++++++++++++++++++to 0.533172
Heightened Def Con from 0.533172 to 0.533172
Heightened Def Con from 0.533172 to 0.533172
Heightened Def Con from 0.533172 ++++++++++++++++++++to 0.533172
Heightened Def Con from 0.533172 to 0.533172
Heightened Def Con from 0.533172 to 0.533172
Heightened Def Con from 0.533172 +to 0.533172
Heightened Def Con from 0.533172 ++++++++++++++++++++to 0.533172
Heightened Def Con from 0.533172 to 0.533172
Heightened Def Con from 0.533172 to 0.533172
Heightened Def Con from 0.533172 to 0.533172
Heightened Def Con from 0.533172 ++++++++++++++++++++to 0.533172
Heightened Def Con from 0.533172 to 0.533172
Heightened Def Con from 0.533172 to 0.533172
Heightened Def Con from 0.533172 to 0.533172
Heightened Def Con from 0.533172 +to 0.533172
Heightened Def Con from 0.533172 ++++++++++++++++++++to 0.533172
Heightened Def Con from 0.533172 to 0.533172
Heightened Def Con from 0.533172 ++++++++++++++++++++to 0.533172
Heightened Def Con from 0.533172 to 0.533172
Heightened Def Con from 0.533172 to 0.533172
Heightened Def Con from 0.533172 ++++++++++++++++++++to 0.533172
Heightened Def Con from 0.533172 to 0.533172
Heightened Def Con from 0.533172 to 0.533172
Heightened Def Con from 0.533172 to 0.533172
Heightened Def Con from 0.533172 +to 0.533172
Heightened Def Con from 0.533172 ++++++++++++++++++++to 0.533172
Heightened Def Con from 0.533172 to 0.533172
Heightened Def Con from 0.533172 to 0.533172
Heightened Def Con from 0.533172 to 0.533172
Heightened Def Con from 0.533172 ++++++++++++++++++++to 0.533172
Heightened Def Con from 0.533172 to 0.533172
Heightened Def Con from 0.533172 to 0.533172
Heightened Def Con from 0.533172 ++to 0.533172
Heightened Def Con from 0.533172 to 0.533172
Heightened Def Con from 0.533172 ++++++++++++++++++++to 0.533172
Heightened Def Con from 0.533172 to 0.533172
Heightened Def Con from 0.533172 to 0.533172
Heightened Def Con from 0.533172 ++++++++++++++++++++to 0.533172
Heightened Def Con from 0.533172 to 0.533172
Heightened Def Con from 0.533172 to 0.533172
Heightened Def Con from 0.533172 +to 0.533172
Heightened Def Con from 0.533172 ++++++++++++++++++++to 0.533172
Heightened Def Con from 0.533172 to 0.533172
Heightened Def Con from 0.533172 to 0.533172
Heightened Def Con from 0.533172 ++to 0.533172
Heightened Def Con from 0.533172 to 0.533172
Heightened Def Con from 0.533172 ++++++++++++++++++++to 0.533172
Heightened Def Con from 0.533172 to 0.533172
Heightened Def Con from 0.533172 to 0.533172
Heightened Def Con from 0.533172 ++++++++++++++++++++to 0.533172
Heightened Def Con from 0.533172 to 0.533172
Heightened Def Con from 0.533172 to 0.533172
Heightened Def Con from 0.533172 ++++++++++++++++++++to 0.533172
Heightened Def Con from 0.533172 to 0.533172
Heightened Def Con from 0.533172 to 0.533172
Heightened Def Con from 0.533172 +to 0.533172
Heightened Def Con from 0.533172 ++++++++++++++++++++to 0.533172
Heightened Def Con from 0.533172 to 0.533172
Heightened Def Con from 0.533172 to 0.533172
Heightened Def Con from 0.533172 +++++to 0.533172
Heightened Def Con from 0.533172 +to 0.533172
Heightened Def Con from 0.533172 to 0.533172
Heightened Def Con from 0.533172 ++++++++++++++++++++to 0.533172
Heightened Def Con from 0.533172 to 0.533172
Heightened Def Con from 0.533172 to 0.533172
Heightened Def Con from 0.533172 to 0.533172
Heightened Def Con from 0.533172 to 0.533172
Heightened Def Con from 0.533172 to 0.533172
Heightened Def Con from 0.533172 +to 0.533172
Heightened Def Con from 0.533172 ++++++++++++++++++++to 0.533172
Heightened Def Con from 0.533172 to 0.533172
Heightened Def Con from 0.533172 to 0.533172
Heightened Def Con from 0.533172 ++++++++++++++++++++to 0.533172
Heightened Def Con from 0.533172 to 0.533172
Heightened Def Con from 0.533172 to 0.533172
Heightened Def Con from 0.533172 ++++++++++++++++++++to 0.533172
Heightened Def Con from 0.533172 to 0.533172
Heightened Def Con from 0.533172 to 0.533172
Heightened Def Con from 0.533172 to 0.533172
Heightened Def Con from 0.533172 +to 0.533172
Heightened Def Con from 0.533172 ++++++++++++++++++++to 0.533172
Heightened Def Con from 0.533172 to 0.533172
Heightened Def Con from 0.533172 to 0.533172
Heightened Def Con from 0.533172 to 0.533172
Heightened Def Con from 0.533172 ++++++++++++++++++++to 0.533172
Heightened Def Con from 0.533172 to 0.533172
Heightened Def Con from 0.533172 to 0.533172
Heightened Def Con from 0.533172 +to 0.533172
Heightened Def Con from 0.533172 ++++++++++++++++++++to 0.533172
Heightened Def Con from 0.533172 to 0.533172
Heightened Def Con from 0.533172 to 0.533172
Heightened Def Con from 0.533172 to 0.533172
Heightened Def Con from 0.533172 ++++++++++++++++++++to 0.533172
Heightened Def Con from 0.533172 to 0.533172
Heightened Def Con from 0.533172 to 0.533172
Heightened Def Con from 0.533172 to 0.533172
Heightened Def Con from 0.533172 to 0.533172
Heightened Def Con from 0.533172 ++++++++++++++++++++to 0.533172
Heightened Def Con from 0.533172 to 0.533172
Heightened Def Con from 0.533172 to 0.533172
Heightened Def Con from 0.533172 to 0.533172
Heightened Def Con from 0.533172 to 0.533172
Heightened Def Con from 0.533172 to 0.533172
Heightened Def Con from 0.533172 ++to 0.533172
Heightened Def Con from 0.533172 ++++++++++++++++++++to 0.533172
Heightened Def Con from 0.533172 to 0.533172
Heightened Def Con from 0.533172 to 0.533172
Heightened Def Con from 0.533172 to 0.533172
Heightened Def Con from 0.533172 to 0.533172
Heightened Def Con from 0.533172 +to 0.533172
Heightened Def Con from 0.533172 ++to 0.533172
Heightened Def Con from 0.533172 ++++++++++++++++++++to 0.533172
Heightened Def Con from 0.533172 to 0.533172
Heightened Def Con from 0.533172 to 0.533172
Heightened Def Con from 0.533172 to 0.533172
Heightened Def Con from 0.533172 to 0.533172
Heightened Def Con from 0.533172 ++++++++++++++++++++to 0.533172
Heightened Def Con from 0.533172 to 0.533172
Heightened Def Con from 0.533172 to 0.533172
Heightened Def Con from 0.533172 +to 0.533172
Heightened Def Con from 0.533172 ++++to 0.533172
Heightened Def Con from 0.533172 ++to 0.533172
Heightened Def Con from 0.533172 ++++++++++++++++++++to 0.533172
Heightened Def Con from 0.533172 to 0.533172
Heightened Def Con from 0.533172 to 0.533172
Heightened Def Con from 0.533172 to 0.533172
Heightened Def Con from 0.533172 to 0.533172
Heightened Def Con from 0.533172 ++++++++++++++++++++to 0.533172
Heightened Def Con from 0.533172 to 0.533172
Heightened Def Con from 0.533172 to 0.533172
Heightened Def Con from 0.533172 +to 0.533172
Heightened Def Con from 0.533172 ++++++++++++++++++++to 0.533172
Heightened Def Con from 0.533172 to 0.533172
Heightened Def Con from 0.533172 to 0.533172
Heightened Def Con from 0.533172 to 0.533172
Heightened Def Con from 0.533172 +to 0.533172
Heightened Def Con from 0.533172 to 0.533172
Heightened Def Con from 0.533172 ++to 0.533172
Heightened Def Con from 0.533172 ++++++++++++++++++++to 0.533172
Heightened Def Con from 0.533172 to 0.533172
Heightened Def Con from 0.533172 to 0.533172
Heightened Def Con from 0.533172 to 0.533172
Heightened Def Con from 0.533172 to 0.533172
Heightened Def Con from 0.533172 to 0.533172
Heightened Def Con from 0.533172 to 0.533172
Heightened Def Con from 0.533172 ++++++++++++++++++++to 0.533172
Heightened Def Con from 0.533172 to 0.533172
Heightened Def Con from 0.533172 to 0.533172
Heightened Def Con from 0.533172 ++to 0.533172
Heightened Def Con from 0.533172 ++++++++++++++++++++to 0.533172
Heightened Def Con from 0.533172 to 0.533172
Heightened Def Con from 0.533172 to 0.533172
Heightened Def Con from 0.533172 to 0.533172
Heightened Def Con from 0.533172 ++++++++++++++++++++to 0.533172
Heightened Def Con from 0.533172 to 0.533172
Heightened Def Con from 0.533172 to 0.533172
Heightened Def Con from 0.533172 to 0.533172
Heightened Def Con from 0.533172 ++++++++++++++++++++to 0.533172
Heightened Def Con from 0.533172 to 0.533172
Heightened Def Con from 0.533172 to 0.533172
Heightened Def Con from 0.533172 to 0.533172
Heightened Def Con from 0.533172 ++++to 0.533172
Heightened Def Con from 0.533172 to 0.533172
Heightened Def Con from 0.533172 ++++++++++++++++++++to 0.533172
Heightened Def Con from 0.533172 to 0.533172
Heightened Def Con from 0.533172 to 0.533172
Heightened Def Con from 0.533172 to 0.533172
Heightened Def Con from 0.533172 to 0.533172
Heightened Def Con from 0.533172 ++++++++++++++++++++to 0.533172
Heightened Def Con from 0.533172 to 0.533172
Heightened Def Con from 0.533172 to 0.533172
Heightened Def Con from 0.533172 to 0.533172
Heightened Def Con from 0.533172 ++++++++++++++++++++to 0.533172
Heightened Def Con from 0.533172 to 0.533172
Heightened Def Con from 0.533172 to 0.533172
Heightened Def Con from 0.533172 to 0.533172
Heightened Def Con from 0.533172 ++++++++++++++++++++to 0.533172
Heightened Def Con from 0.533172 to 0.533172
Heightened Def Con from 0.533172 to 0.533172
Heightened Def Con from 0.533172 +++to 0.533172
Heightened Def Con from 0.533172 ++++++++++++++++++++to 0.533172
Heightened Def Con from 0.533172 to 0.533172
Heightened Def Con from 0.533172 to 0.533172
Heightened Def Con from 0.533172 to 0.533172
Heightened Def Con from 0.533172 +to 0.533172
Heightened Def Con from 0.533172 to 0.533172
Heightened Def Con from 0.533172 ++++++++++++++++++++to 0.533172
Heightened Def Con from 0.533172 to 0.533172
Heightened Def Con from 0.533172 to 0.533172
Heightened Def Con from 0.533172 to 0.533172
Heightened Def Con from 0.533172 ++++++++++++++++++++to 0.533172
Heightened Def Con from 0.533172 to 0.533172
Heightened Def Con from 0.533172 to 0.533172
Heightened Def Con from 0.533172 to 0.533172
Heightened Def Con from 0.533172 ++++++++++++++++++++to 0.533172
Heightened Def Con from 0.533172 to 0.533172
Heightened Def Con from 0.533172 to 0.533172
Heightened Def Con from 0.533172 +to 0.533172
Heightened Def Con from 0.533172 ++++++++++++++++++++to 0.533172
Heightened Def Con from 0.533172 to 0.533172
Heightened Def Con from 0.533172 to 0.533172
Heightened Def Con from 0.533172 ++to 0.533172
Heightened Def Con from 0.533172 to 0.533172
Heightened Def Con from 0.533172 ++to 0.533172
Heightened Def Con from 0.533172 ++++++++++++++++++++to 0.533172
Heightened Def Con from 0.533172 to 0.533172
Heightened Def Con from 0.533172 to 0.533172
Heightened Def Con from 0.533172 to 0.533172
Heightened Def Con from 0.533172 ++++++++++++++++++++to 0.533172
Heightened Def Con from 0.533172 to 0.533172
Heightened Def Con from 0.533172 to 0.533172
Heightened Def Con from 0.533172 to 0.533172
Heightened Def Con from 0.533172 to 0.533172
Heightened Def Con from 0.533172 ++++++++++++++++++++to 0.533172
Heightened Def Con from 0.533172 to 0.533172
Heightened Def Con from 0.533172 to 0.533172
Heightened Def Con from 0.533172 to 0.533172
Heightened Def Con from 0.533172 +to 0.533172
Heightened Def Con from 0.533172 to 0.533172
Heightened Def Con from 0.533172 ++++++++++++++++++++to 0.533172
Heightened Def Con from 0.533172 to 0.533172
Heightened Def Con from 0.533172 to 0.533172
Heightened Def Con from 0.533172 ++++++++++++++++++++to 0.533172
Heightened Def Con from 0.533172 to 0.533172
Heightened Def Con from 0.533172 to 0.533172
Heightened Def Con from 0.533172 to 0.533172
Heightened Def Con from 0.533172 to 0.533172
Heightened Def Con from 0.533172 to 0.533172
Heightened Def Con from 0.533172 to 0.533172
Heightened Def Con from 0.533172 ++++++++++++++++++++to 0.533172
Heightened Def Con from 0.533172 to 0.533172
Heightened Def Con from 0.533172 to 0.533172
Heightened Def Con from 0.533172 to 0.533172
Heightened Def Con from 0.533172 ++++++++++++++++++++to 0.533172
Heightened Def Con from 0.533172 to 0.533172
Heightened Def Con from 0.533172 to 0.533172
Heightened Def Con from 0.533172 ++++++++++++++++++++to 0.533172
Heightened Def Con from 0.533172 to 0.533172
Heightened Def Con from 0.533172 to 0.533172
Heightened Def Con from 0.533172 to 0.533172
Heightened Def Con from 0.533172 to 0.533172
Heightened Def Con from 0.533172 +to 0.533172
Heightened Def Con from 0.533172 ++++++++++++++++++++to 0.533172
Heightened Def Con from 0.533172 to 0.533172
Heightened Def Con from 0.533172 to 0.533172
Heightened Def Con from 0.533172 ++++++++++++++++++++to 0.533172
Heightened Def Con from 0.533172 to 0.533172
Heightened Def Con from 0.533172 to 0.533172
Heightened Def Con from 0.533172 +to 0.533172
Heightened Def Con from 0.533172 ++++++++++++++++++++to 0.533172
Heightened Def Con from 0.533172 to 0.533172
Heightened Def Con from 0.533172 to 0.533172
Heightened Def Con from 0.533172 ++to 0.533172
Heightened Def Con from 0.533172 ++++++++++++++++++++to 0.533172
Heightened Def Con from 0.533172 to 0.533172
Heightened Def Con from 0.533172 to 0.533172
Heightened Def Con from 0.533172 to 0.533172
Heightened Def Con from 0.533172 +to 0.533172
Heightened Def Con from 0.533172 ++++++++++++++++++++to 0.533172
Heightened Def Con from 0.533172 to 0.533172
Heightened Def Con from 0.533172 to 0.533172
Heightened Def Con from 0.533172 ++++++++++++++++++++to 0.533172
Heightened Def Con from 0.533172 to 0.533172
Heightened Def Con from 0.533172 to 0.533172
Heightened Def Con from 0.533172 ++to 0.533172
Heightened Def Con from 0.533172 ++++++++++++++++++++to 0.533172
Heightened Def Con from 0.533172 to 0.533172
Heightened Def Con from 0.533172 to 0.533172
Heightened Def Con from 0.533172 to 0.533172
Heightened Def Con from 0.533172 ++++++++++++++++++++to 0.533172
Heightened Def Con from 0.533172 to 0.533172
Heightened Def Con from 0.533172 to 0.533172
Heightened Def Con from 0.533172 to 0.533172
Heightened Def Con from 0.533172 +to 0.533172
Heightened Def Con from 0.533172 ++++to 0.533172
Heightened Def Con from 0.533172 ++++++++++++++++++++to 0.533172
Heightened Def Con from 0.533172 to 0.533172
Heightened Def Con from 0.533172 to 0.533172
Heightened Def Con from 0.533172 to 0.533172
Heightened Def Con from 0.533172 ++++++++++++++++++++to 0.533172
Heightened Def Con from 0.533172 to 0.533172
Heightened Def Con from 0.533172 to 0.533172
Heightened Def Con from 0.533172 to 0.533172
Heightened Def Con from 0.533172 to 0.533172
Heightened Def Con from 0.533172 ++to 0.533172
Heightened Def Con from 0.533172 +to 0.533172
Heightened Def Con from 0.533172 ++++++++++++++++++++to 0.533172
Heightened Def Con from 0.533172 to 0.533172
Heightened Def Con from 0.533172 to 0.533172
Heightened Def Con from 0.533172 to 0.533172
Heightened Def Con from 0.533172 to 0.533172
Heightened Def Con from 0.533172 ++to 0.533172
Heightened Def Con from 0.533172 ++to 0.533172
Heightened Def Con from 0.533172 ++++++++++++++++++++to 0.533172
Heightened Def Con from 0.533172 to 0.533172
Heightened Def Con from 0.533172 to 0.533172
Heightened Def Con from 0.533172 +to 0.533172
Heightened Def Con from 0.533172 ++to 0.533172
Heightened Def Con from 0.533172 to 0.533172
Heightened Def Con from 0.533172 ++++++++++++++++++++to 0.533172
Heightened Def Con from 0.533172 to 0.533172
Heightened Def Con from 0.533172 to 0.533172
Heightened Def Con from 0.533172 to 0.533172
Heightened Def Con from 0.533172 to 0.533172
Heightened Def Con from 0.533172 to 0.533172
Heightened Def Con from 0.533172 ++++++++++++++++++++to 0.533172
Heightened Def Con from 0.533172 to 0.533172
Heightened Def Con from 0.533172 to 0.533172
Heightened Def Con from 0.533172 to 0.533172
Heightened Def Con from 0.533172 to 0.533172
Heightened Def Con from 0.533172 ++++++++++++++++++++to 0.533172
Heightened Def Con from 0.533172 to 0.533172
Heightened Def Con from 0.533172 to 0.533172
Heightened Def Con from 0.533172 to 0.533172
Heightened Def Con from 0.533172 to 0.533172
Heightened Def Con from 0.533172 ++to 0.533172
Heightened Def Con from 0.533172 ++++++++++++++++++++to 0.533172
Heightened Def Con from 0.533172 to 0.533172
Heightened Def Con from 0.533172 to 0.533172
Heightened Def Con from 0.533172 +to 0.533172
Heightened Def Con from 0.533172 ++++++++++++++++++++to 0.533172
Heightened Def Con from 0.533172 to 0.533172
Heightened Def Con from 0.533172 to 0.533172
Heightened Def Con from 0.533172 to 0.533172
Heightened Def Con from 0.533172 ++++to 0.533172
Heightened Def Con from 0.533172 +to 0.533172
Heightened Def Con from 0.533172 ++++++++++++++++++++to 0.533172
Heightened Def Con from 0.533172 to 0.533172
Heightened Def Con from 0.533172 to 0.533172
Heightened Def Con from 0.533172 +++to 0.533172
Heightened Def Con from 0.533172 ++++++++++++++++++++to 0.533172
Heightened Def Con from 0.533172 to 0.533172
Heightened Def Con from 0.533172 to 0.533172
Heightened Def Con from 0.533172 to 0.533172
Heightened Def Con from 0.533172 ++++++++++++++++++++to 0.533172
Heightened Def Con from 0.533172 to 0.533172
Heightened Def Con from 0.533172 to 0.533172
Heightened Def Con from 0.533172 to 0.533172
Heightened Def Con from 0.533172 ++++++++++++++++++++to 0.533172
Heightened Def Con from 0.533172 to 0.533172
Heightened Def Con from 0.533172 to 0.533172
Heightened Def Con from 0.533172 ++++++++++++++++++++to 0.533172
Heightened Def Con from 0.533172 to 0.533172
Heightened Def Con from 0.533172 to 0.533172
Heightened Def Con from 0.533172 to 0.533172
Heightened Def Con from 0.533172 +to 0.533172
Heightened Def Con from 0.533172 to 0.533172
Heightened Def Con from 0.533172 to 0.533172
Heightened Def Con from 0.533172 ++++++++++++++++++++to 0.533172
Heightened Def Con from 0.533172 to 0.533172
Heightened Def Con from 0.533172 to 0.533172
Heightened Def Con from 0.533172 ++++++++++++++++++++to 0.533172
Heightened Def Con from 0.533172 to 0.533172
Heightened Def Con from 0.533172 to 0.533172
Heightened Def Con from 0.533172 ++to 0.533172
Heightened Def Con from 0.533172 +to 0.533172
Heightened Def Con from 0.533172 ++++++++++++++++++++to 0.533172
Heightened Def Con from 0.533172 to 0.533172
Heightened Def Con from 0.533172 to 0.533172
Heightened Def Con from 0.533172 +to 0.533172
Heightened Def Con from 0.533172 ++++++++++++++++++++to 0.533172
Heightened Def Con from 0.533172 to 0.533172
Heightened Def Con from 0.533172 to 0.533172
Heightened Def Con from 0.533172 +to 0.533172
Heightened Def Con from 0.533172 to 0.533172
Heightened Def Con from 0.533172 +to 0.533172
Heightened Def Con from 0.533172 ++++++++++++++++++++to 0.533172
Heightened Def Con from 0.533172 to 0.533172
Heightened Def Con from 0.533172 to 0.533172
Heightened Def Con from 0.533172 to 0.533172
Heightened Def Con from 0.533172 to 0.533172
Heightened Def Con from 0.533172 ++++++++++++++++++++to 0.533172
Heightened Def Con from 0.533172 to 0.533172
Heightened Def Con from 0.533172 to 0.533172
Heightened Def Con from 0.533172 to 0.533172
Heightened Def Con from 0.533172 ++++++++++++++++++++to 0.533172
Heightened Def Con from 0.533172 to 0.533172
Heightened Def Con from 0.533172 to 0.533172
Heightened Def Con from 0.533172 to 0.533172
Heightened Def Con from 0.533172 +to 0.533172
Heightened Def Con from 0.533172 ++++++++++++++++++++to 0.533172
Heightened Def Con from 0.533172 to 0.533172
Heightened Def Con from 0.533172 to 0.533172
Heightened Def Con from 0.533172 ++to 0.533172
Heightened Def Con from 0.533172 ++++++++++++++++++++to 0.533172
Heightened Def Con from 0.533172 to 0.533172
Heightened Def Con from 0.533172 to 0.533172
Heightened Def Con from 0.533172 +to 0.533172
Heightened Def Con from 0.533172 ++++++++++++++++++++to 0.533172
Heightened Def Con from 0.533172 to 0.533172
Heightened Def Con from 0.533172 to 0.533172
Heightened Def Con from 0.533172 to 0.533172
Heightened Def Con from 0.533172 to 0.533172
Heightened Def Con from 0.533172 to 0.533172
Heightened Def Con from 0.533172 ++++++++++++++++++++to 0.533172
Heightened Def Con from 0.533172 to 0.533172
Heightened Def Con from 0.533172 to 0.533172
Heightened Def Con from 0.533172 to 0.533172
Heightened Def Con from 0.533172 ++++++++++++++++++++to 0.533172
Heightened Def Con from 0.533172 to 0.533172
Heightened Def Con from 0.533172 to 0.533172
Heightened Def Con from 0.533172 to 0.533172
Heightened Def Con from 0.533172 to 0.533172
Heightened Def Con from 0.533172 to 0.533172
Heightened Def Con from 0.533172 +to 0.533172
Heightened Def Con from 0.533172 ++++++++++++++++++++to 0.533172
Heightened Def Con from 0.533172 to 0.533172
Heightened Def Con from 0.533172 to 0.533172
Heightened Def Con from 0.533172 to 0.533172
Heightened Def Con from 0.533172 ++++++++++++++++++++to 0.533172
Heightened Def Con from 0.533172 to 0.533172
Heightened Def Con from 0.533172 to 0.533172
Heightened Def Con from 0.533172 to 0.533172
Heightened Def Con from 0.533172 to 0.533172
Heightened Def Con from 0.533172 ++++++++++++++++++++to 0.533172
Heightened Def Con from 0.533172 to 0.533172
Heightened Def Con from 0.533172 to 0.533172
Heightened Def Con from 0.533172 +to 0.533172
Heightened Def Con from 0.533172 to 0.533172
Heightened Def Con from 0.533172 ++++++++++++++++++++to 0.533172
Heightened Def Con from 0.533172 to 0.533172
Heightened Def Con from 0.533172 to 0.533172
Heightened Def Con from 0.533172 ++to 0.533172
Heightened Def Con from 0.533172 to 0.533172
Heightened Def Con from 0.533172 ++to 0.533172
Heightened Def Con from 0.533172 +++to 0.533172
Heightened Def Con from 0.533172 ++++++++++++++++++++to 0.533172
Heightened Def Con from 0.533172 to 0.533172
Heightened Def Con from 0.533172 to 0.533172
Heightened Def Con from 0.533172 +to 0.533172
Heightened Def Con from 0.533172 ++to 0.533172
Heightened Def Con from 0.533172 ++++++++++++++++++++to 0.533172
Heightened Def Con from 0.533172 to 0.533172
Heightened Def Con from 0.533172 to 0.533172
Heightened Def Con from 0.533172 ++to 0.533172
Heightened Def Con from 0.533172 +to 0.533172
Heightened Def Con from 0.533172 ++++++++++++++++++++to 0.533172
Heightened Def Con from 0.533172 to 0.533172
Heightened Def Con from 0.533172 to 0.533172
Heightened Def Con from 0.533172 to 0.533172
Heightened Def Con from 0.533172 to 0.533172
Heightened Def Con from 0.533172 to 0.533172
Heightened Def Con from 0.533172 ++to 0.533172
Heightened Def Con from 0.533172 ++++++++++++++++++++to 0.533172
Heightened Def Con from 0.533172 to 0.533172
Heightened Def Con from 0.533172 to 0.533172
Heightened Def Con from 0.533172 ++to 0.533172
Heightened Def Con from 0.533172 ++++++++++++++++++++to 0.533172
Heightened Def Con from 0.533172 to 0.533172
Heightened Def Con from 0.533172 to 0.533172
Heightened Def Con from 0.533172 to 0.533172
Heightened Def Con from 0.533172 to 0.533172
Heightened Def Con from 0.533172 to 0.533172
Heightened Def Con from 0.533172 +to 0.533172
Heightened Def Con from 0.533172 ++++++++++++++++++++to 0.533172
Heightened Def Con from 0.533172 to 0.533172
Heightened Def Con from 0.533172 to 0.533172
Heightened Def Con from 0.533172 to 0.533172
Heightened Def Con from 0.533172 to 0.533172
Heightened Def Con from 0.533172 ++++++++++++++++++++to 0.533172
Heightened Def Con from 0.533172 to 0.533172
Heightened Def Con from 0.533172 to 0.533172
Heightened Def Con from 0.533172 to 0.533172
Heightened Def Con from 0.533172 +++to 0.533172
Heightened Def Con from 0.533172 to 0.533172
Heightened Def Con from 0.533172 ++++++++++++++++++++to 0.533172
Heightened Def Con from 0.533172 to 0.533172
Heightened Def Con from 0.533172 to 0.533172
Heightened Def Con from 0.533172 to 0.533172
Heightened Def Con from 0.533172 to 0.533172
Heightened Def Con from 0.533172 to 0.533172
Heightened Def Con from 0.533172 ++++++++++++++++++++to 0.533172
Heightened Def Con from 0.533172 to 0.533172
Heightened Def Con from 0.533172 to 0.533172
Heightened Def Con from 0.533172 to 0.533172
Heightened Def Con from 0.533172 +++to 0.533172
Heightened Def Con from 0.533172 to 0.533172
Heightened Def Con from 0.533172 +to 0.533172
Heightened Def Con from 0.533172 ++++++++++++++++++++to 0.533172
Heightened Def Con from 0.533172 to 0.533172
Heightened Def Con from 0.533172 to 0.533172
Heightened Def Con from 0.533172 to 0.533172
Heightened Def Con from 0.533172 to 0.533172
Heightened Def Con from 0.533172 ++++++++++++++++++++to 0.533172
Heightened Def Con from 0.533172 to 0.533172
Heightened Def Con from 0.533172 to 0.533172
Heightened Def Con from 0.533172 to 0.533172
Heightened Def Con from 0.533172 +to 0.533172
Heightened Def Con from 0.533172 ++++++++++++++++++++to 0.533172
Heightened Def Con from 0.533172 to 0.533172
Heightened Def Con from 0.533172 to 0.533172
Heightened Def Con from 0.533172 to 0.533172
Heightened Def Con from 0.533172 +++to 0.533172
Heightened Def Con from 0.533172 ++++++++++++++++++++to 0.533172
Heightened Def Con from 0.533172 to 0.533172
Heightened Def Con from 0.533172 to 0.533172
Heightened Def Con from 0.533172 to 0.533172
Heightened Def Con from 0.533172 ++++++++++++++++++++to 0.533172
Heightened Def Con from 0.533172 to 0.533172
Heightened Def Con from 0.533172 to 0.533172
Heightened Def Con from 0.533172 +to 0.533172
Heightened Def Con from 0.533172 +++to 0.533172
Heightened Def Con from 0.533172 ++++++++++++++++++++to 0.533172
Heightened Def Con from 0.533172 to 0.533172
Heightened Def Con from 0.533172 to 0.533172
Heightened Def Con from 0.533172 ++to 0.533172
Heightened Def Con from 0.533172 ++to 0.533172
Heightened Def Con from 0.533172 ++++++++++++++++++++to 0.533172
Heightened Def Con from 0.533172 to 0.533172
Heightened Def Con from 0.533172 to 0.533172
Heightened Def Con from 0.533172 ++++++++++++++++++++to 0.533172
Heightened Def Con from 0.533172 to 0.533172
Heightened Def Con from 0.533172 to 0.533172
Heightened Def Con from 0.533172 to 0.533172
Heightened Def Con from 0.533172 to 0.533172
Heightened Def Con from 0.533172 ++++++++++++++++++++to 0.533172
Heightened Def Con from 0.533172 to 0.533172
Heightened Def Con from 0.533172 to 0.533172
Heightened Def Con from 0.533172 +to 0.533172
Heightened Def Con from 0.533172 to 0.533172
Heightened Def Con from 0.533172 ++++++++++++++++++++to 0.533172
Heightened Def Con from 0.533172 to 0.533172
Heightened Def Con from 0.533172 to 0.533172
Heightened Def Con from 0.533172 to 0.533172
Heightened Def Con from 0.533172 ++++++++++++++++++++to 0.533172
Heightened Def Con from 0.533172 to 0.533172
Heightened Def Con from 0.533172 to 0.533172
Heightened Def Con from 0.533172 +++to 0.533172
Heightened Def Con from 0.533172 ++++++++++++++++++++to 0.533172
Heightened Def Con from 0.533172 to 0.533172
Heightened Def Con from 0.533172 to 0.533172
Heightened Def Con from 0.533172 to 0.533172
Heightened Def Con from 0.533172 to 0.533172
Heightened Def Con from 0.533172 ++++++++++++++++++++to 0.533172
Heightened Def Con from 0.533172 to 0.533172
Heightened Def Con from 0.533172 to 0.533172
Heightened Def Con from 0.533172 to 0.533172
Heightened Def Con from 0.533172 +++to 0.533172
Heightened Def Con from 0.533172 to 0.533172
Heightened Def Con from 0.533172 ++++++++++++++++++++to 0.533172
Heightened Def Con from 0.533172 to 0.533172
Heightened Def Con from 0.533172 to 0.533172
Heightened Def Con from 0.533172 to 0.533172
Heightened Def Con from 0.533172 to 0.533172
Heightened Def Con from 0.533172 to 0.533172
Heightened Def Con from 0.533172 ++++++++++++++++++++to 0.533172
Heightened Def Con from 0.533172 to 0.533172
Heightened Def Con from 0.533172 to 0.533172
Heightened Def Con from 0.533172 ++++++++++++++++++++to 0.533172
Heightened Def Con from 0.533172 to 0.533172
Heightened Def Con from 0.533172 to 0.533172
Heightened Def Con from 0.533172 to 0.533172
Heightened Def Con from 0.533172 to 0.533172
Heightened Def Con from 0.533172 ++++++++++++++++++++to 0.533172
Heightened Def Con from 0.533172 to 0.533172
Heightened Def Con from 0.533172 to 0.533172
Heightened Def Con from 0.533172 ++++++++++++++++++++to 0.533172
Heightened Def Con from 0.533172 to 0.533172
Heightened Def Con from 0.533172 to 0.533172
Heightened Def Con from 0.533172 ++to 0.533172
Heightened Def Con from 0.533172 to 0.533172
Heightened Def Con from 0.533172 ++++++++++++++++++++to 0.533172
Heightened Def Con from 0.533172 to 0.533172
Heightened Def Con from 0.533172 to 0.533172
Heightened Def Con from 0.533172 to 0.533172
Heightened Def Con from 0.533172 ++++++++++++++++++++to 0.533172
Heightened Def Con from 0.533172 to 0.533172
Heightened Def Con from 0.533172 to 0.533172
Heightened Def Con from 0.533172 to 0.533172
Heightened Def Con from 0.533172 ++++++++++++++++++++to 0.533172
Heightened Def Con from 0.533172 to 0.533172
Heightened Def Con from 0.533172 to 0.533172
Heightened Def Con from 0.533172 to 0.533172
Heightened Def Con from 0.533172 ++++++++++++++++++++to 0.533172
Heightened Def Con from 0.533172 to 0.533172
Heightened Def Con from 0.533172 to 0.533172
Heightened Def Con from 0.533172 ++++++++++++++++++++to 0.533172
Heightened Def Con from 0.533172 to 0.533172
Heightened Def Con from 0.533172 to 0.533172
Heightened Def Con from 0.533172 +++++to 0.533172
Heightened Def Con from 0.533172 ++++++++++++++++++++to 0.533172
Heightened Def Con from 0.533172 to 0.533172
Heightened Def Con from 0.533172 to 0.533172
Heightened Def Con from 0.533172 +to 0.533172
Heightened Def Con from 0.533172 +++to 0.533172
Heightened Def Con from 0.533172 ++to 0.533172
Heightened Def Con from 0.533172 ++++++++++++++++++++to 0.533172
Heightened Def Con from 0.533172 to 0.533172
Heightened Def Con from 0.533172 to 0.533172
Heightened Def Con from 0.533172 to 0.533172
Heightened Def Con from 0.533172 +to 0.533172
Heightened Def Con from 0.533172 to 0.533172
Heightened Def Con from 0.533172 ++++++++++++++++++++to 0.533172
Heightened Def Con from 0.533172 to 0.533172
Heightened Def Con from 0.533172 to 0.533172
Heightened Def Con from 0.533172 +++to 0.533172
Heightened Def Con from 0.533172 ++++++++++++++++++++to 0.533172
Heightened Def Con from 0.533172 to 0.533172
Heightened Def Con from 0.533172 to 0.533172
Heightened Def Con from 0.533172 to 0.533172
Heightened Def Con from 0.533172 +to 0.533172
Heightened Def Con from 0.533172 +to 0.533172
Heightened Def Con from 0.533172 ++++++++++++++++++++to 0.533172
Heightened Def Con from 0.533172 to 0.533172
Heightened Def Con from 0.533172 to 0.533172
Heightened Def Con from 0.533172 to 0.533172
Heightened Def Con from 0.533172 +to 0.533172
Heightened Def Con from 0.533172 ++++++++++++++++++++to 0.533172
Heightened Def Con from 0.533172 to 0.533172
Heightened Def Con from 0.533172 to 0.533172
Heightened Def Con from 0.533172 +to 0.533172
Heightened Def Con from 0.533172 +++to 0.533172
Heightened Def Con from 0.533172 ++to 0.533172
Heightened Def Con from 0.533172 +to 0.533172
Heightened Def Con from 0.533172 ++++++++++++++++++++to 0.533172
Heightened Def Con from 0.533172 to 0.533172
Heightened Def Con from 0.533172 to 0.533172
Heightened Def Con from 0.533172 +to 0.533172
Heightened Def Con from 0.533172 +++to 0.533172
Heightened Def Con from 0.533172 ++++++++++++++++++++to 0.533172
Heightened Def Con from 0.533172 to 0.533172
Heightened Def Con from 0.533172 to 0.533172
Heightened Def Con from 0.533172 +to 0.533172
Heightened Def Con from 0.533172 +++to 0.533172
Heightened Def Con from 0.533172 ++++++++++++++++++++to 0.533172
Heightened Def Con from 0.533172 to 0.533172
Heightened Def Con from 0.533172 to 0.533172
Heightened Def Con from 0.533172 to 0.533172
Heightened Def Con from 0.533172 ++++++++++++++++++++to 0.533172
Heightened Def Con from 0.533172 to 0.533172
Heightened Def Con from 0.533172 to 0.533172
Heightened Def Con from 0.533172 ++++++++++++++++++++to 0.533172
Heightened Def Con from 0.533172 to 0.533172
Heightened Def Con from 0.533172 to 0.533172
Heightened Def Con from 0.533172 to 0.533172
Heightened Def Con from 0.533172 ++to 0.533172
Heightened Def Con from 0.533172 +to 0.533172
Heightened Def Con from 0.533172 to 0.533172
Heightened Def Con from 0.533172 ++++++++++++++++++++to 0.533172
Heightened Def Con from 0.533172 to 0.533172
Heightened Def Con from 0.533172 to 0.533172
Heightened Def Con from 0.533172 to 0.533172
Heightened Def Con from 0.533172 ++++++++++++++++++++to 0.533172
Heightened Def Con from 0.533172 to 0.533172
Heightened Def Con from 0.533172 to 0.533172
Heightened Def Con from 0.533172 to 0.533172
Heightened Def Con from 0.533172 +to 0.533172
Heightened Def Con from 0.533172 ++++++++++++++++++++to 0.533172
Heightened Def Con from 0.533172 to 0.533172
Heightened Def Con from 0.533172 to 0.533172
Heightened Def Con from 0.533172 +++to 0.533172
Heightened Def Con from 0.533172 ++++++++++++++++++++to 0.533172
Heightened Def Con from 0.533172 to 0.533172
Heightened Def Con from 0.533172 to 0.533172
Heightened Def Con from 0.533172 to 0.533172
Heightened Def Con from 0.533172 ++++++++++++++++++++to 0.533172
Heightened Def Con from 0.533172 to 0.533172
Heightened Def Con from 0.533172 to 0.533172
Heightened Def Con from 0.533172 to 0.533172
Heightened Def Con from 0.533172 ++to 0.533172
Heightened Def Con from 0.533172 ++++++++++++++++++++to 0.533172
Heightened Def Con from 0.533172 to 0.533172
Heightened Def Con from 0.533172 to 0.533172
Heightened Def Con from 0.533172 to 0.533172
Heightened Def Con from 0.533172 ++++to 0.533172
Heightened Def Con from 0.533172 ++++++++++++++++++++to 0.533172
Heightened Def Con from 0.533172 to 0.533172
Heightened Def Con from 0.533172 to 0.533172
Heightened Def Con from 0.533172 to 0.533172
Heightened Def Con from 0.533172 ++++++++++++++++++++to 0.533172
Heightened Def Con from 0.533172 to 0.533172
Heightened Def Con from 0.533172 to 0.533172
Heightened Def Con from 0.533172 to 0.533172
Heightened Def Con from 0.533172 ++++++++++++++++++++to 0.533172
Heightened Def Con from 0.533172 to 0.533172
Heightened Def Con from 0.533172 to 0.533172
Heightened Def Con from 0.533172 to 0.533172
Heightened Def Con from 0.533172 +to 0.533172
Heightened Def Con from 0.533172 ++++++++++++++++++++to 0.533172
Heightened Def Con from 0.533172 to 0.533172
Heightened Def Con from 0.533172 to 0.533172
Heightened Def Con from 0.533172 +to 0.533172
Heightened Def Con from 0.533172 +to 0.533172
Heightened Def Con from 0.533172 ++++++++++++++++++++to 0.533172
Heightened Def Con from 0.533172 to 0.533172
Heightened Def Con from 0.533172 to 0.533172
Heightened Def Con from 0.533172 to 0.533172
Heightened Def Con from 0.533172 ++++++++++++++++++++to 0.533172
Heightened Def Con from 0.533172 to 0.533172
Heightened Def Con from 0.533172 to 0.533172
Heightened Def Con from 0.533172 to 0.533172
Heightened Def Con from 0.533172 ++++++++++++++++++++to 0.533172
Heightened Def Con from 0.533172 to 0.533172
Heightened Def Con from 0.533172 to 0.533172
Heightened Def Con from 0.533172 to 0.533172
Heightened Def Con from 0.533172 +++to 0.533172
Heightened Def Con from 0.533172 ++++++++++++++++++++to 0.533172
Heightened Def Con from 0.533172 to 0.533172
Heightened Def Con from 0.533172 to 0.533172
Heightened Def Con from 0.533172 ++++++++++++++++++++to 0.533172
Heightened Def Con from 0.533172 to 0.533172
Heightened Def Con from 0.533172 to 0.533172
Heightened Def Con from 0.533172 to 0.533172
Heightened Def Con from 0.533172 to 0.533172
Heightened Def Con from 0.533172 ++++to 0.533172
Heightened Def Con from 0.533172 ++++++++++++++++++++to 0.533172
Heightened Def Con from 0.533172 to 0.533172
Heightened Def Con from 0.533172 to 0.533172
Heightened Def Con from 0.533172 to 0.533172
Heightened Def Con from 0.533172 to 0.533172
Heightened Def Con from 0.533172 +++to 0.533172
Heightened Def Con from 0.533172 +++to 0.533172
Heightened Def Con from 0.533172 ++++++++++++++++++++to 0.533172
Heightened Def Con from 0.533172 to 0.533172
Heightened Def Con from 0.533172 to 0.533172
Heightened Def Con from 0.533172 ++++++++++++++++++++to 0.533172
Heightened Def Con from 0.533172 to 0.533172
Heightened Def Con from 0.533172 to 0.533172
Heightened Def Con from 0.533172 to 0.533172
Heightened Def Con from 0.533172 ++++++++++++++++++++to 0.533172
Heightened Def Con from 0.533172 to 0.533172
Heightened Def Con from 0.533172 to 0.533172
Heightened Def Con from 0.533172 to 0.533172
Heightened Def Con from 0.533172 ++++++++++++++++++++to 0.533172
Heightened Def Con from 0.533172 to 0.533172
Heightened Def Con from 0.533172 to 0.533172
Heightened Def Con from 0.533172 +to 0.533172
Heightened Def Con from 0.533172 +to 0.533172
Heightened Def Con from 0.533172 ++++++++++++++++++++to 0.533172
Heightened Def Con from 0.533172 to 0.533172
Heightened Def Con from 0.533172 to 0.533172
Heightened Def Con from 0.533172 to 0.533172
Heightened Def Con from 0.533172 ++++++++++++++++++++to 0.533172
Heightened Def Con from 0.533172 to 0.533172
Heightened Def Con from 0.533172 to 0.533172
Heightened Def Con from 0.533172 ++to 0.533172
Heightened Def Con from 0.533172 to 0.533172
Heightened Def Con from 0.533172 ++++++++++++++++++++to 0.533172
Heightened Def Con from 0.533172 to 0.533172
Heightened Def Con from 0.533172 to 0.533172
Heightened Def Con from 0.533172 to 0.533172
Heightened Def Con from 0.533172 to 0.533172
Heightened Def Con from 0.533172 ++++++++++++++++++++to 0.533172
Heightened Def Con from 0.533172 to 0.533172
Heightened Def Con from 0.533172 to 0.533172
Heightened Def Con from 0.533172 to 0.533172
Heightened Def Con from 0.533172 ++to 0.533172
Heightened Def Con from 0.533172 ++++to 0.533172
Heightened Def Con from 0.533172 +to 0.533172
Heightened Def Con from 0.533172 ++++++++++++++++++++to 0.533172
Heightened Def Con from 0.533172 to 0.533172
Heightened Def Con from 0.533172 to 0.533172
Heightened Def Con from 0.533172 to 0.533172
Heightened Def Con from 0.533172 to 0.533172
Heightened Def Con from 0.533172 ++++++++++++++++++++to 0.533172
Heightened Def Con from 0.533172 to 0.533172
Heightened Def Con from 0.533172 to 0.533172
Heightened Def Con from 0.533172 ++to 0.533172
Heightened Def Con from 0.533172 ++++++++++++++++++++to 0.533172
Heightened Def Con from 0.533172 to 0.533172
Heightened Def Con from 0.533172 to 0.533172
Heightened Def Con from 0.533172 ++++++++++++++++++++to 0.533172
Heightened Def Con from 0.533172 to 0.533172
Heightened Def Con from 0.533172 to 0.533172
Heightened Def Con from 0.533172 ++++++++++++++++++++to 0.533172
Heightened Def Con from 0.533172 to 0.533172
Heightened Def Con from 0.533172 to 0.533172
Heightened Def Con from 0.533172 +to 0.533172
Heightened Def Con from 0.533172 +to 0.533172
Heightened Def Con from 0.533172 ++++++++++++++++++++to 0.533172
Heightened Def Con from 0.533172 to 0.533172
Heightened Def Con from 0.533172 to 0.533172
Heightened Def Con from 0.533172 ++to 0.533172
Heightened Def Con from 0.533172 ++++++++++++++++++++to 0.533172
Heightened Def Con from 0.533172 to 0.533172
Heightened Def Con from 0.533172 to 0.533172
Heightened Def Con from 0.533172 to 0.533172
Heightened Def Con from 0.533172 ++++++++++++++++++++to 0.533172
Heightened Def Con from 0.533172 to 0.533172
Heightened Def Con from 0.533172 to 0.533172
Heightened Def Con from 0.533172 ++++++++++++++++++++to 0.533172
Heightened Def Con from 0.533172 to 0.533172
Heightened Def Con from 0.533172 to 0.533172
Heightened Def Con from 0.533172 to 0.533172
Heightened Def Con from 0.533172 ++++to 0.533172
Heightened Def Con from 0.533172 ++++++++++++++++++++to 0.533172
Heightened Def Con from 0.533172 to 0.533172
Heightened Def Con from 0.533172 to 0.533172
Heightened Def Con from 0.533172 to 0.533172
Heightened Def Con from 0.533172 +to 0.533172
Heightened Def Con from 0.533172 ++++++++++++++++++++to 0.533172
Heightened Def Con from 0.533172 to 0.533172
Heightened Def Con from 0.533172 to 0.533172
Heightened Def Con from 0.533172 ++++++++++++++++++++to 0.533172
Heightened Def Con from 0.533172 to 0.533172
Heightened Def Con from 0.533172 to 0.533172
Heightened Def Con from 0.533172 to 0.533172
Heightened Def Con from 0.533172 ++++++++++++++++++++to 0.533172
Heightened Def Con from 0.533172 to 0.533172
Heightened Def Con from 0.533172 to 0.533172
Heightened Def Con from 0.533172 ++++++++++++++++++++to 0.533172
Heightened Def Con from 0.533172 to 0.533172
Heightened Def Con from 0.533172 to 0.533172
Heightened Def Con from 0.533172 to 0.533172
Heightened Def Con from 0.533172 ++++++++++++++++++++to 0.533172
Heightened Def Con from 0.533172 to 0.533172
Heightened Def Con from 0.533172 to 0.533172
Heightened Def Con from 0.533172 ++++++++++++++++++++to 0.533172
Heightened Def Con from 0.533172 to 0.533172
Heightened Def Con from 0.533172 to 0.533172
Heightened Def Con from 0.533172 +++to 0.533172
Heightened Def Con from 0.533172 ++++++++++++++++++++to 0.533172
Heightened Def Con from 0.533172 to 0.533172
Heightened Def Con from 0.533172 to 0.533172
Heightened Def Con from 0.533172 to 0.533172
Heightened Def Con from 0.533172 ++++++++++++++++++++to 0.533172
Heightened Def Con from 0.533172 to 0.533172
Heightened Def Con from 0.533172 to 0.533172
Heightened Def Con from 0.533172 +to 0.533172
Heightened Def Con from 0.533172 +to 0.533172
Heightened Def Con from 0.533172 ++++++++++++++++++++to 0.533172
Heightened Def Con from 0.533172 to 0.533172
Heightened Def Con from 0.533172 to 0.533172
Heightened Def Con from 0.533172 +++to 0.533172
Heightened Def Con from 0.533172 to 0.533172
Heightened Def Con from 0.533172 ++++++++++++++++++++to 0.533172
Heightened Def Con from 0.533172 to 0.533172
Heightened Def Con from 0.533172 to 0.533172
Heightened Def Con from 0.533172 to 0.533172
Heightened Def Con from 0.533172 ++++++++++++++++++++to 0.533172
Heightened Def Con from 0.533172 to 0.533172
Heightened Def Con from 0.533172 to 0.533172
Heightened Def Con from 0.533172 to 0.533172
Heightened Def Con from 0.533172 ++++++++++++++++++++to 0.533172
Heightened Def Con from 0.533172 to 0.533172
Heightened Def Con from 0.533172 to 0.533172
Heightened Def Con from 0.533172 to 0.533172
Heightened Def Con from 0.533172 ++to 0.533172
Heightened Def Con from 0.533172 +++to 0.533172
Heightened Def Con from 0.533172 ++++++++++++++++++++to 0.533172
Heightened Def Con from 0.533172 to 0.533172
Heightened Def Con from 0.533172 to 0.533172
Heightened Def Con from 0.533172 to 0.533172
Heightened Def Con from 0.533172 +to 0.533172
Heightened Def Con from 0.533172 ++++++++++++++++++++to 0.533172
Heightened Def Con from 0.533172 to 0.533172
Heightened Def Con from 0.533172 to 0.533172
Heightened Def Con from 0.533172 +++++to 0.533172
Heightened Def Con from 0.533172 ++++++++++++++++++++to 0.533172
Heightened Def Con from 0.533172 to 0.533172
Heightened Def Con from 0.533172 to 0.533172
Heightened Def Con from 0.533172 to 0.533172
Heightened Def Con from 0.533172 ++++++++++++++++++++to 0.533172
Heightened Def Con from 0.533172 to 0.533172
Heightened Def Con from 0.533172 to 0.533172
Heightened Def Con from 0.533172 ++++++++++++++++++++to 0.533172
Heightened Def Con from 0.533172 to 0.533172
Heightened Def Con from 0.533172 to 0.533172
Heightened Def Con from 0.533172 to 0.533172
Heightened Def Con from 0.533172 +to 0.533172
Heightened Def Con from 0.533172 ++++++++++++++++++++to 0.533172
Heightened Def Con from 0.533172 to 0.533172
Heightened Def Con from 0.533172 to 0.533172
Heightened Def Con from 0.533172 ++++++++++++++++++++to 0.533172
Heightened Def Con from 0.533172 to 0.533172
Heightened Def Con from 0.533172 to 0.533172
Heightened Def Con from 0.533172 to 0.533172
Heightened Def Con from 0.533172 to 0.533172
Heightened Def Con from 0.533172 to 0.533172
Heightened Def Con from 0.533172 +++to 0.533172
Heightened Def Con from 0.533172 ++++++++++++++++++++to 0.533172
Heightened Def Con from 0.533172 to 0.533172
Heightened Def Con from 0.533172 to 0.533172
Heightened Def Con from 0.533172 ++++++++++++++++++++to 0.533172
Heightened Def Con from 0.533172 to 0.533172
Heightened Def Con from 0.533172 to 0.533172
Heightened Def Con from 0.533172 ++++++++++++++++++++to 0.533172
Heightened Def Con from 0.533172 to 0.533172
Heightened Def Con from 0.533172 to 0.533172
Heightened Def Con from 0.533172 ++++++++++++++++++++to 0.533172
Heightened Def Con from 0.533172 to 0.533172
Heightened Def Con from 0.533172 to 0.533172
Heightened Def Con from 0.533172 ++to 0.533172
Heightened Def Con from 0.533172 to 0.533172
Heightened Def Con from 0.533172 ++++++++++++++++++++to 0.533172
Heightened Def Con from 0.533172 to 0.533172
Heightened Def Con from 0.533172 to 0.533172
Heightened Def Con from 0.533172 to 0.533172
Heightened Def Con from 0.533172 +to 0.533172
Heightened Def Con from 0.533172 ++++++++++++++++++++to 0.533172
Heightened Def Con from 0.533172 to 0.533172
Heightened Def Con from 0.533172 to 0.533172
Heightened Def Con from 0.533172 ++++++++++++++++++++to 0.533172
Heightened Def Con from 0.533172 to 0.533172
Heightened Def Con from 0.533172 to 0.533172
Heightened Def Con from 0.533172 +to 0.533172
Heightened Def Con from 0.533172 ++++++++++++++++++++to 0.533172
Heightened Def Con from 0.533172 to 0.533172
Heightened Def Con from 0.533172 to 0.533172
Heightened Def Con from 0.533172 to 0.533172
Heightened Def Con from 0.533172 ++++++++++++++++++++to 0.533172
Heightened Def Con from 0.533172 to 0.533172
Heightened Def Con from 0.533172 to 0.533172
Heightened Def Con from 0.533172 ++++++++++++++++++++to 0.533172
Heightened Def Con from 0.533172 to 0.533172
Heightened Def Con from 0.533172 to 0.533172
Heightened Def Con from 0.533172 to 0.533172
Heightened Def Con from 0.533172 ++++++++++++++++++++to 0.533172
Heightened Def Con from 0.533172 to 0.533172
Heightened Def Con from 0.533172 to 0.533172
Heightened Def Con from 0.533172 +to 0.533172
Heightened Def Con from 0.533172 ++++++++++++++++++++to 0.533172
Heightened Def Con from 0.533172 to 0.533172
Heightened Def Con from 0.533172 to 0.533172
Heightened Def Con from 0.533172 +to 0.533172
Heightened Def Con from 0.533172 +++to 0.533172
Heightened Def Con from 0.533172 ++++++++++++++++++++to 0.533172
Heightened Def Con from 0.533172 to 0.533172
Heightened Def Con from 0.533172 to 0.533172
Heightened Def Con from 0.533172 to 0.533172
Heightened Def Con from 0.533172 ++++++++++++++++++++to 0.533172
Heightened Def Con from 0.533172 to 0.533172
Heightened Def Con from 0.533172 to 0.533172
Heightened Def Con from 0.533172 ++to 0.533172
Heightened Def Con from 0.533172 ++++++++++++++++++++to 0.533172
Heightened Def Con from 0.533172 to 0.533172
Heightened Def Con from 0.533172 to 0.533172
Heightened Def Con from 0.533172 ++++++++++++++++++++to 0.533172
Heightened Def Con from 0.533172 to 0.533172
Heightened Def Con from 0.533172 to 0.533172
Heightened Def Con from 0.533172 to 0.533172
Heightened Def Con from 0.533172 ++++to 0.533172
Heightened Def Con from 0.533172 ++++++++++++++++++++to 0.533172
Heightened Def Con from 0.533172 to 0.533172
Heightened Def Con from 0.533172 to 0.533172
Heightened Def Con from 0.533172 to 0.533172
Heightened Def Con from 0.533172 to 0.533172
Heightened Def Con from 0.533172 ++to 0.533172
Heightened Def Con from 0.533172 ++++++++++++++++++++to 0.533172
Heightened Def Con from 0.533172 to 0.533172
Heightened Def Con from 0.533172 to 0.533172
Heightened Def Con from 0.533172 +to 0.533172
Heightened Def Con from 0.533172 ++++++++++++++++++++to 0.533172
Heightened Def Con from 0.533172 to 0.533172
Heightened Def Con from 0.533172 to 0.533172
Heightened Def Con from 0.533172 ++++++++++++++++++++to 0.533172
Heightened Def Con from 0.533172 to 0.533172
[...]
Heightened Def Con from 0.533172 to 0.533172
Heightened Def Con from 0.533172 to 0.533172
Heightened Def Con from 0.533172 ++++++++++++++++++++to 0.533172
Heightened Def Con from 0.533172 to 0.533172
Heightened Def Con from 0.533172 to 0.533172
Heightened Def Con from 0.533172 to 0.533172
Heightened Def Con from 0.533172 ++++++++++++++++++++to 0.533172
Heightened Def Con from 0.533172 to 0.533172
Heightened Def Con from 0.533172 to 0.533172
Heightened Def Con from 0.533172 ++++++++++++++++++++to 0.533172
Heightened Def Con from 0.533172 to 0.533172
Heightened Def Con from 0.533172 to 0.533172
Heightened Def Con from 0.533172 +to 0.533172
Heightened Def Con from 0.533172 to 0.533172
Heightened Def Con from 0.533172 to 0.533172
Heightened Def Con from 0.533172 ++++++++++++++++++++to 0.533172
Heightened Def Con from 0.533172 to 0.533172
Heightened Def Con from 0.533172 to 0.533172
Heightened Def Con from 0.533172 to 0.533172
Heightened Def Con from 0.533172 ++++++++++++++++++++to 0.533172
Heightened Def Con from 0.533172 to 0.533172
Heightened Def Con from 0.533172 to 0.533172
Heightened Def Con from 0.533172 to 0.533172
Heightened Def Con from 0.533172 ++++++++++++++++++++to 0.533172
Heightened Def Con from 0.533172 to 0.533172
Heightened Def Con from 0.533172 to 0.533172
Heightened Def Con from 0.533172 ++to 0.533172
Heightened Def Con from 0.533172 +to 0.533172
Heightened Def Con from 0.533172 ++++++++++++++++++++to 0.533172
Heightened Def Con from 0.533172 to 0.533172
Heightened Def Con from 0.533172 to 0.533172
Heightened Def Con from 0.533172 +to 0.533172
Heightened Def Con from 0.533172 ++++++++++++++++++++to 0.533172
Heightened Def Con from 0.533172 to 0.533172
Heightened Def Con from 0.533172 to 0.533172
Heightened Def Con from 0.533172 to 0.533172
Heightened Def Con from 0.533172 to 0.533172
Heightened Def Con from 0.533172 +++to 0.533172
Heightened Def Con from 0.533172 ++++++++++++++++++++to 0.533172
Heightened Def Con from 0.533172 to 0.533172
Heightened Def Con from 0.533172 to 0.533172
Heightened Def Con from 0.533172 +to 0.533172
Heightened Def Con from 0.533172 to 0.533172
Heightened Def Con from 0.533172 ++++++++++++++++++++to 0.533172
Heightened Def Con from 0.533172 to 0.533172
Heightened Def Con from 0.533172 to 0.533172
Heightened Def Con from 0.533172 to 0.533172
Heightened Def Con from 0.533172 ++++++++++++++++++++to 0.533172
Heightened Def Con from 0.533172 to 0.533172
Heightened Def Con from 0.533172 to 0.533172
Heightened Def Con from 0.533172 ++++++++++++++++++++to 0.533172
Heightened Def Con from 0.533172 to 0.533172
Heightened Def Con from 0.533172 to 0.533172
Heightened Def Con from 0.533172 to 0.533172
Heightened Def Con from 0.533172 ++to 0.533172
Heightened Def Con from 0.533172 +++++to 0.533172
Heightened Def Con from 0.533172 ++++++++++++++++++++to 0.533172
Heightened Def Con from 0.533172 to 0.533172
Heightened Def Con from 0.533172 to 0.533172
Heightened Def Con from 0.533172 to 0.533172
Heightened Def Con from 0.533172 +to 0.533172
Heightened Def Con from 0.533172 ++++to 0.533172
Heightened Def Con from 0.533172 +++to 0.533172
Heightened Def Con from 0.533172 ++++++++++++++++++++to 0.533172
Heightened Def Con from 0.533172 to 0.533172
Heightened Def Con from 0.533172 to 0.533172
Heightened Def Con from 0.533172 ++++++++++++++++++++to 0.533172
Heightened Def Con from 0.533172 to 0.533172
Heightened Def Con from 0.533172 to 0.533172
Heightened Def Con from 0.533172 to 0.533172
Heightened Def Con from 0.533172 ++++++++++++++++++++to 0.533172
Heightened Def Con from 0.533172 to 0.533172
Heightened Def Con from 0.533172 to 0.533172
Heightened Def Con from 0.533172 +to 0.533172
Heightened Def Con from 0.533172 to 0.533172
Heightened Def Con from 0.533172 ++to 0.533172
Heightened Def Con from 0.533172 ++++++++++++++++++++to 0.533172
Heightened Def Con from 0.533172 to 0.533172
Heightened Def Con from 0.533172 to 0.533172
Heightened Def Con from 0.533172 ++to 0.533172
Heightened Def Con from 0.533172 ++to 0.533172
Heightened Def Con from 0.533172 ++++++++++++++++++++to 0.533172
Heightened Def Con from 0.533172 to 0.533172
Heightened Def Con from 0.533172 to 0.533172
Heightened Def Con from 0.533172 to 0.533172
Heightened Def Con from 0.533172 ++++++++++++++++++++to 0.533172
Heightened Def Con from 0.533172 to 0.533172
Heightened Def Con from 0.533172 to 0.533172
Heightened Def Con from 0.533172 to 0.533172
Heightened Def Con from 0.533172 to 0.533172
Heightened Def Con from 0.533172 ++++++++++++++++++++to 0.533172
Heightened Def Con from 0.533172 to 0.533172
Heightened Def Con from 0.533172 to 0.533172
Heightened Def Con from 0.533172 +to 0.533172
Heightened Def Con from 0.533172 ++++++++++++++++++++to 0.533172
Heightened Def Con from 0.533172 to 0.533172
Heightened Def Con from 0.533172 to 0.533172
Heightened Def Con from 0.533172 to 0.533172
Heightened Def Con from 0.533172 ++++++++++++++++++++to 0.533172
Heightened Def Con from 0.533172 to 0.533172
Heightened Def Con from 0.533172 to 0.533172
Heightened Def Con from 0.533172 to 0.533172
Heightened Def Con from 0.533172 ++++++++++++++++++++to 0.533172
Heightened Def Con from 0.533172 to 0.533172
Heightened Def Con from 0.533172 to 0.533172
Heightened Def Con from 0.533172 to 0.533172
Heightened Def Con from 0.533172 to 0.533172
Heightened Def Con from 0.533172 to 0.533172
Heightened Def Con from 0.533172 ++++++++++++++++++++to 0.533172
Heightened Def Con from 0.533172 to 0.533172
Heightened Def Con from 0.533172 to 0.533172
Heightened Def Con from 0.533172 to 0.533172
Heightened Def Con from 0.533172 ++++++++++++++++++++to 0.533172
Heightened Def Con from 0.533172 to 0.533172
Heightened Def Con from 0.533172 to 0.533172
Heightened Def Con from 0.533172 +to 0.533172
Heightened Def Con from 0.533172 ++++++++++++++++++++to 0.533172
Heightened Def Con from 0.533172 to 0.533172
Heightened Def Con from 0.533172 to 0.533172
Heightened Def Con from 0.533172 +++to 0.533172
Heightened Def Con from 0.533172 ++++++++++++++++++++to 0.533172
Heightened Def Con from 0.533172 to 0.533172
Heightened Def Con from 0.533172 to 0.533172
Heightened Def Con from 0.533172 ++++++++++++++++++++to 0.533172
Heightened Def Con from 0.533172 to 0.533172
Heightened Def Con from 0.533172 to 0.533172
Heightened Def Con from 0.533172 to 0.533172
Heightened Def Con from 0.533172 ++++++++++++++++++++to 0.533172
Heightened Def Con from 0.533172 to 0.533172
Heightened Def Con from 0.533172 to 0.533172
Heightened Def Con from 0.533172 ++++to 0.533172
Heightened Def Con from 0.533172 ++++++++++++++++++++to 0.533172
Heightened Def Con from 0.533172 to 0.533172
Heightened Def Con from 0.533172 to 0.533172
Heightened Def Con from 0.533172 to 0.533172
Heightened Def Con from 0.533172 ++++to 0.533172
Heightened Def Con from 0.533172 +to 0.533172
Heightened Def Con from 0.533172 ++++++++++++++++++++to 0.533172
Heightened Def Con from 0.533172 to 0.533172
Heightened Def Con from 0.533172 to 0.533172
Heightened Def Con from 0.533172 ++++to 0.533172
Heightened Def Con from 0.533172 ++to 0.533172
Heightened Def Con from 0.533172 to 0.533172
Heightened Def Con from 0.533172 ++++++++++++++++++++to 0.533172
Heightened Def Con from 0.533172 to 0.533172
Heightened Def Con from 0.533172 to 0.533172
Heightened Def Con from 0.533172 ++++++++++++++++++++to 0.533172
Heightened Def Con from 0.533172 to 0.533172
Heightened Def Con from 0.533172 to 0.533172
Heightened Def Con from 0.533172 ++++++++++++++++++++to 0.533172
Heightened Def Con from 0.533172 to 0.533172
Heightened Def Con from 0.533172 to 0.533172
Heightened Def Con from 0.533172 +to 0.533172
Heightened Def Con from 0.533172 +to 0.533172
Heightened Def Con from 0.533172 to 0.533172
Heightened Def Con from 0.533172 ++++++++++++++++++++to 0.533172
Heightened Def Con from 0.533172 to 0.533172
Heightened Def Con from 0.533172 to 0.533172
Heightened Def Con from 0.533172 to 0.533172
Heightened Def Con from 0.533172 ++++++++++++++++++++to 0.533172
Heightened Def Con from 0.533172 to 0.533172
Heightened Def Con from 0.533172 to 0.533172
Heightened Def Con from 0.533172 to 0.533172
Heightened Def Con from 0.533172 ++++to 0.533172
Heightened Def Con from 0.533172 ++++++++++++++++++++to 0.533172
Heightened Def Con from 0.533172 to 0.533172
Heightened Def Con from 0.533172 to 0.533172
Heightened Def Con from 0.533172 ++++++++++++++++++++to 0.533172
Heightened Def Con from 0.533172 to 0.533172
Heightened Def Con from 0.533172 to 0.533172
Heightened Def Con from 0.533172 ++to 0.533172
Heightened Def Con from 0.533172 +++to 0.533172
Heightened Def Con from 0.533172 +to 0.533172
Heightened Def Con from 0.533172 ++++++++++++++++++++to 0.533172
Heightened Def Con from 0.533172 to 0.533172
Heightened Def Con from 0.533172 to 0.533172
Heightened Def Con from 0.533172 ++++++++++++++++++++to 0.533172
Heightened Def Con from 0.533172 to 0.533172
Heightened Def Con from 0.533172 to 0.533172
Heightened Def Con from 0.533172 to 0.533172
Heightened Def Con from 0.533172 +to 0.533172
Heightened Def Con from 0.533172 ++++++++++++++++++++to 0.533172
Heightened Def Con from 0.533172 to 0.533172
Heightened Def Con from 0.533172 to 0.533172
Heightened Def Con from 0.533172 +++to 0.533172
Heightened Def Con from 0.533172 ++++++++++++++++++++to 0.533172
Heightened Def Con from 0.533172 to 0.533172
Heightened Def Con from 0.533172 to 0.533172
Heightened Def Con from 0.533172 ++++++++++++++++++++to 0.533172
Heightened Def Con from 0.533172 to 0.533172
Heightened Def Con from 0.533172 to 0.533172
Heightened Def Con from 0.533172 +to 0.533172
Heightened Def Con from 0.533172 ++to 0.533172
Heightened Def Con from 0.533172 ++++++++++++++++++++to 0.533172
Heightened Def Con from 0.533172 to 0.533172
Heightened Def Con from 0.533172 to 0.533172
Heightened Def Con from 0.533172 to 0.533172
Heightened Def Con from 0.533172 ++++++++++++++++++++to 0.533172
Heightened Def Con from 0.533172 to 0.533172
Heightened Def Con from 0.533172 to 0.533172
Heightened Def Con from 0.533172 ++++++++++++++++++++to 0.533172
Heightened Def Con from 0.533172 to 0.533172
Heightened Def Con from 0.533172 to 0.533172
Heightened Def Con from 0.533172 to 0.533172
Heightened Def Con from 0.533172 +to 0.533172
Heightened Def Con from 0.533172 +++to 0.533172
Heightened Def Con from 0.533172 ++++++++++++++++++++to 0.533172
Heightened Def Con from 0.533172 to 0.533172
Heightened Def Con from 0.533172 to 0.533172
Heightened Def Con from 0.533172 +to 0.533172
Heightened Def Con from 0.533172 ++++++++++++++++++++to 0.533172
Heightened Def Con from 0.533172 to 0.533172
Heightened Def Con from 0.533172 to 0.533172
Heightened Def Con from 0.533172 +++++to 0.533172
Heightened Def Con from 0.533172 ++++++++++++++++++++to 0.533172
Heightened Def Con from 0.533172 to 0.533172
Heightened Def Con from 0.533172 to 0.533172
Heightened Def Con from 0.533172 to 0.533172
Heightened Def Con from 0.533172 ++++++++++++++++++++to 0.533172
Heightened Def Con from 0.533172 to 0.533172
Heightened Def Con from 0.533172 to 0.533172
Heightened Def Con from 0.533172 ++++++++++++++++++++to 0.533172
Heightened Def Con from 0.533172 to 0.533172
Heightened Def Con from 0.533172 to 0.533172
Heightened Def Con from 0.533172 to 0.533172
Heightened Def Con from 0.533172 ++++++++++++++++++++to 0.533172
Heightened Def Con from 0.533172 to 0.533172
Heightened Def Con from 0.533172 to 0.533172
Heightened Def Con from 0.533172 ++++++++++++++++++++to 0.533172
Heightened Def Con from 0.533172 to 0.533172
Heightened Def Con from 0.533172 to 0.533172
Heightened Def Con from 0.533172 ++++++++++++++++++++to 0.533172
Heightened Def Con from 0.533172 to 0.533172
Heightened Def Con from 0.533172 to 0.533172
Heightened Def Con from 0.533172 ++++++++++++++++++++to 0.533172
Heightened Def Con from 0.533172 to 0.533172
Heightened Def Con from 0.533172 to 0.533172
Heightened Def Con from 0.533172 ++to 0.533172
Heightened Def Con from 0.533172 ++++++++++++++++++++to 0.533172
Heightened Def Con from 0.533172 to 0.533172
Heightened Def Con from 0.533172 to 0.533172
Heightened Def Con from 0.533172 ++++++++++++++++++++to 0.533172
Heightened Def Con from 0.533172 to 0.533172
Heightened Def Con from 0.533172 to 0.533172
Heightened Def Con from 0.533172 +to 0.533172
Heightened Def Con from 0.533172 +to 0.533172
Heightened Def Con from 0.533172 +to 0.533172
Heightened Def Con from 0.533172 to 0.533172
Heightened Def Con from 0.533172 ++++++++++++++++++++to 0.533172
Heightened Def Con from 0.533172 to 0.533172
Heightened Def Con from 0.533172 to 0.533172
Heightened Def Con from 0.533172 to 0.533172
Heightened Def Con from 0.533172 +to 0.533172
Heightened Def Con from 0.533172 ++++++++++++++++++++to 0.533172
Heightened Def Con from 0.533172 to 0.533172
Heightened Def Con from 0.533172 to 0.533172
Heightened Def Con from 0.533172 to 0.533172
Heightened Def Con from 0.533172 to 0.533172
Heightened Def Con from 0.533172 ++++++++++++++++++++to 0.533172
Heightened Def Con from 0.533172 to 0.533172
Heightened Def Con from 0.533172 to 0.533172
Heightened Def Con from 0.533172 to 0.533172
Heightened Def Con from 0.533172 ++++++++++++++++++++to 0.533172
Heightened Def Con from 0.533172 to 0.533172
Heightened Def Con from 0.533172 to 0.533172
Heightened Def Con from 0.533172 to 0.533172
Heightened Def Con from 0.533172 to 0.533172
Heightened Def Con from 0.533172 ++++++++++++++++++++to 0.533172
Heightened Def Con from 0.533172 to 0.533172
Heightened Def Con from 0.533172 to 0.533172
Heightened Def Con from 0.533172 to 0.533172
Heightened Def Con from 0.533172 +++to 0.533172
Heightened Def Con from 0.533172 ++++++++++++++++++++to 0.533172
Heightened Def Con from 0.533172 to 0.533172
Heightened Def Con from 0.533172 to 0.533172
Heightened Def Con from 0.533172 to 0.533172
Heightened Def Con from 0.533172 ++++++++++++++++++++to 0.533172
Heightened Def Con from 0.533172 to 0.533172
Heightened Def Con from 0.533172 to 0.533172
Heightened Def Con from 0.533172 to 0.533172
Heightened Def Con from 0.533172 +to 0.533172
Heightened Def Con from 0.533172 ++++++++++++++++++++to 0.533172
Heightened Def Con from 0.533172 to 0.533172
Heightened Def Con from 0.533172 to 0.533172
Heightened Def Con from 0.533172 to 0.533172
Heightened Def Con from 0.533172 to 0.533172
Heightened Def Con from 0.533172 ++++++++++++++++++++to 0.533172
Heightened Def Con from 0.533172 to 0.533172
Heightened Def Con from 0.533172 to 0.533172
Heightened Def Con from 0.533172 ++++++++++++++++++++to 0.533172
Heightened Def Con from 0.533172 to 0.533172
Heightened Def Con from 0.533172 to 0.533172
Heightened Def Con from 0.533172 to 0.533172
Heightened Def Con from 0.533172 +++to 0.533172
Heightened Def Con from 0.533172 ++++++++++++++++++++to 0.533172
Heightened Def Con from 0.533172 to 0.533172
Heightened Def Con from 0.533172 to 0.533172
Heightened Def Con from 0.533172 to 0.533172
Heightened Def Con from 0.533172 +++to 0.533172
Heightened Def Con from 0.533172 ++++++++++++++++++++to 0.533172
Heightened Def Con from 0.533172 to 0.533172
Heightened Def Con from 0.533172 to 0.533172
Heightened Def Con from 0.533172 to 0.533172
Heightened Def Con from 0.533172 ++++++++++++++++++++to 0.533172
Heightened Def Con from 0.533172 to 0.533172
Heightened Def Con from 0.533172 to 0.533172
Heightened Def Con from 0.533172 to 0.533172
Heightened Def Con from 0.533172 to 0.533172
Heightened Def Con from 0.533172 ++++++++++++++++++++to 0.533172
Heightened Def Con from 0.533172 to 0.533172
Heightened Def Con from 0.533172 to 0.533172
Heightened Def Con from 0.533172 to 0.533172
Heightened Def Con from 0.533172 to 0.533172
Heightened Def Con from 0.533172 ++++++++++++++++++++to 0.533172
Heightened Def Con from 0.533172 to 0.533172
Heightened Def Con from 0.533172 to 0.533172
Heightened Def Con from 0.533172 to 0.533172
Heightened Def Con from 0.533172 to 0.533172
Heightened Def Con from 0.533172 ++++++++++++++++++++to 0.533172
Heightened Def Con from 0.533172 to 0.533172
Heightened Def Con from 0.533172 to 0.533172
Heightened Def Con from 0.533172 to 0.533172
Heightened Def Con from 0.533172 ++++++++++++++++++++to 0.533172
Heightened Def Con from 0.533172 to 0.533172
Heightened Def Con from 0.533172 to 0.533172
Heightened Def Con from 0.533172 ++++++++++++++++++++to 0.533172
Heightened Def Con from 0.533172 to 0.533172
Heightened Def Con from 0.533172 to 0.533172
Heightened Def Con from 0.533172 to 0.533172
Heightened Def Con from 0.533172 ++++++++++++++++++++to 0.533172
Heightened Def Con from 0.533172 to 0.533172
Heightened Def Con from 0.533172 to 0.533172
Heightened Def Con from 0.533172 to 0.533172
Heightened Def Con from 0.533172 to 0.533172
Heightened Def Con from 0.533172 ++++++++++++++++++++to 0.533172
Heightened Def Con from 0.533172 to 0.533172
Heightened Def Con from 0.533172 to 0.533172
Heightened Def Con from 0.533172 ++++++++++++++++++++to 0.533172
Heightened Def Con from 0.533172 to 0.533172
Heightened Def Con from 0.533172 to 0.533172
Heightened Def Con from 0.533172 to 0.533172
Heightened Def Con from 0.533172 to 0.533172
Heightened Def Con from 0.533172 to 0.533172
Heightened Def Con from 0.533172 ++++++++++++++++++++to 0.533172
Heightened Def Con from 0.533172 to 0.533172
Heightened Def Con from 0.533172 to 0.533172
Heightened Def Con from 0.533172 ++++++++++++++++++++to 0.533172
Heightened Def Con from 0.533172 to 0.533172
Heightened Def Con from 0.533172 to 0.533172
Heightened Def Con from 0.533172 to 0.533172
Heightened Def Con from 0.533172 ++++to 0.533172
Heightened Def Con from 0.533172 ++++++++++++++++++++to 0.533172
Heightened Def Con from 0.533172 to 0.533172
Heightened Def Con from 0.533172 to 0.533172
Heightened Def Con from 0.533172 +++to 0.533172
Heightened Def Con from 0.533172 ++++++++++++++++++++to 0.533172
Heightened Def Con from 0.533172 to 0.533172
Heightened Def Con from 0.533172 to 0.533172
Heightened Def Con from 0.533172 +to 0.533172
Heightened Def Con from 0.533172 ++++++++++++++++++++to 0.533172
Heightened Def Con from 0.533172 to 0.533172
Heightened Def Con from 0.533172 to 0.533172
Heightened Def Con from 0.533172 +to 0.533172
Heightened Def Con from 0.533172 ++++++++++++++++++++to 0.533172
Heightened Def Con from 0.533172 to 0.533172
Heightened Def Con from 0.533172 to 0.533172
Heightened Def Con from 0.533172 +to 0.533172
Heightened Def Con from 0.533172 ++++++++++++++++++++to 0.533172
Heightened Def Con from 0.533172 to 0.533172
Heightened Def Con from 0.533172 to 0.533172
Heightened Def Con from 0.533172 ++++to 0.533172
Heightened Def Con from 0.533172 ++to 0.533172
Heightened Def Con from 0.533172 ++++++++++++++++++++to 0.533172
Heightened Def Con from 0.533172 to 0.533172
Heightened Def Con from 0.533172 to 0.533172
Heightened Def Con from 0.533172 +to 0.533172
Heightened Def Con from 0.533172 +to 0.533172
Heightened Def Con from 0.533172 +to 0.533172
Heightened Def Con from 0.533172 ++++++++++++++++++++to 0.533172
Heightened Def Con from 0.533172 to 0.533172
Heightened Def Con from 0.533172 to 0.533172
Heightened Def Con from 0.533172 to 0.533172
Heightened Def Con from 0.533172 ++++++++++++++++++++to 0.533172
Heightened Def Con from 0.533172 to 0.533172
Heightened Def Con from 0.533172 to 0.533172
Heightened Def Con from 0.533172 to 0.533172
Heightened Def Con from 0.533172 +to 0.533172
Heightened Def Con from 0.533172 to 0.533172
Heightened Def Con from 0.533172 to 0.533172
Heightened Def Con from 0.533172 ++++++++++++++++++++to 0.533172
Heightened Def Con from 0.533172 to 0.533172
Heightened Def Con from 0.533172 to 0.533172
Heightened Def Con from 0.533172 +++++to 0.533172
Heightened Def Con from 0.533172 ++++++++++++++++++++to 0.533172
Heightened Def Con from 0.533172 to 0.533172
Heightened Def Con from 0.533172 to 0.533172
Heightened Def Con from 0.533172 to 0.533172
Heightened Def Con from 0.533172 +to 0.533172
Heightened Def Con from 0.533172 ++to 0.533172
Heightened Def Con from 0.533172 ++++++++++++++++++++to 0.533172
Heightened Def Con from 0.533172 